1ee9.pdb
 OpenBabel03151520153D

 72 76  0  0  1  0  0  0  0  0999 V2000
    5.5290   14.1240   -2.3560 P   0  0  1  0  0  0  0  0  0  0  0  0
    6.8340   13.6880   -1.7970 O   0  0  0  0  0  0  0  0  0  0  0  0
    4.3950   13.1680   -2.4400 O   0  0  0  0  0  0  0  0  0  0  0  0
    5.0570   15.4390   -1.5700 O   0  0  0  0  0  0  0  0  0  0  0  0
    3.7330   15.9390   -1.7650 C   0  0  0  0  0  0  0  0  0  0  0  0
    3.3780   16.7910   -0.5630 C   0  0  1  0  0  0  0  0  0  0  0  0
    1.9430   16.8960   -0.5780 O   0  0  0  0  0  0  0  0  0  0  0  0
    3.7500   16.0970    0.7390 C   0  0  1  0  0  0  0  0  0  0  0  0
    3.9390   16.9900    1.8450 O   0  0  0  0  0  0  0  0  0  0  0  0
    2.5640   15.1730    0.9220 C   0  0  1  0  0  0  0  0  0  0  0  0
    2.4640   14.7770    2.2920 O   0  0  0  0  0  0  0  0  0  0  0  0
    1.4120   16.0620    0.4690 C   0  0  2  0  0  0  0  0  0  0  0  0
    0.2100   15.2980    0.0430 N   0  0  0  0  0  0  0  0  0  0  0  0
    0.1740   14.2720   -0.8290 C   0  0  0  0  0  0  0  0  0  0  0  0
   -1.0190   13.6570   -0.8120 N   0  0  0  0  0  0  0  0  0  0  0  0
   -1.7060   14.3370    0.0920 C   0  0  0  0  0  0  0  0  0  0  0  0
   -3.0170   14.0660    0.4620 C   0  0  0  0  0  0  0  0  0  0  0  0
   -3.7060   13.0560   -0.0570 N   0  0  0  0  0  0  0  0  0  0  0  0
   -3.5510   14.8680    1.4000 N   0  0  0  0  0  0  0  0  0  0  0  0
   -2.8470   15.8710    1.9350 C   0  0  0  0  0  0  0  0  0  0  0  0
   -1.5820   16.1260    1.5800 N   0  0  0  0  0  0  0  0  0  0  0  0
   -0.9770   15.3650    0.6440 C   0  0  0  0  0  0  0  0  0  0  0  0
    5.7280   14.7380   -3.8250 O   0  0  0  0  0  0  0  0  0  0  0  0
    6.3320   16.0850   -4.4660 P   0  0  2  0  0  0  0  0  0  0  0  0
    6.9530   15.6940   -5.7580 O   0  0  0  0  0  0  0  0  0  0  0  0
    7.1650   16.8110   -3.4750 O   0  0  0  0  0  0  0  0  0  0  0  0
    5.0220   16.9910   -4.7990 O   0  0  0  0  0  0  0  0  0  0  0  0
    5.0820   18.3460   -5.3120 C   0  0  0  0  0  0  0  0  0  0  0  0
    4.0430   18.6770   -6.3950 C   0  0  1  0  0  0  0  0  0  0  0  0
    3.6960   20.0780   -6.3500 O   0  0  0  0  0  0  0  0  0  0  0  0
    4.5480   18.4310   -7.8190 C   0  0  1  0  0  0  0  0  0  0  0  0
    4.2870   17.1040   -8.3030 O   0  0  0  0  0  0  0  0  0  0  0  0
    3.7590   19.4260   -8.6620 C   0  0  1  0  0  0  0  0  0  0  0  0
    2.5350   18.8330   -9.1340 O   0  0  0  0  0  0  0  0  0  0  0  0
    3.5640   20.5950   -7.7000 C   0  0  2  0  0  0  0  0  0  0  0  0
    4.5050   21.7100   -8.0200 N   0  0  0  0  0  0  0  0  0  0  0  0
    4.1680   22.6610   -9.0160 C   0  0  0  0  0  0  0  0  0  0  0  0
    5.0360   23.7180   -9.3270 C   0  0  0  0  0  0  0  0  0  0  0  0
    4.6100   24.8880  -10.2330 C   0  0  0  0  0  0  0  0  0  0  0  0
    5.4420   25.6250  -10.7560 O   0  0  0  0  0  0  0  0  0  0  0  0
    3.3060   25.0670  -10.3970 N   0  0  0  0  0  0  0  0  0  0  0  0
    6.2590   23.8010   -8.6490 C   0  0  0  0  0  0  0  0  0  0  0  0
    6.6120   22.8740   -7.6620 C   0  0  0  0  0  0  0  0  0  0  0  0
    5.7360   21.8370   -7.3370 C   0  0  0  0  0  0  0  0  0  0  0  0
    7.1351   12.8918   -2.2620 H   0  0  0  0  0  0  0  0  0  0  0  0
    3.0449   15.1240   -1.8495 H   0  0  0  0  0  0  0  0  0  0  0  0
    3.6809   16.5189   -2.6627 H   0  0  0  0  0  0  0  0  0  0  0  0
    3.8920   17.7280   -0.6147 H   0  0  0  0  0  0  0  0  0  0  0  0
    4.6974   15.6012    0.7005 H   0  0  0  0  0  0  0  0  0  0  0  0
    3.1307   17.5078    1.9843 H   0  0  0  0  0  0  0  0  0  0  0  0
    2.6070   14.2520    0.3790 H   0  0  0  0  0  0  0  0  0  0  0  0
    2.4200   15.5662    2.8543 H   0  0  0  0  0  0  0  0  0  0  0  0
    1.0518   16.6524    1.2854 H   0  0  0  0  0  0  0  0  0  0  0  0
    0.9631   13.9941   -1.4332 H   0  0  0  0  0  0  0  0  0  0  0  0
   -3.2956   12.4811   -0.7428 H   0  0  0  0  0  0  0  0  0  0  0  0
   -4.6271   12.8823    0.2441 H   0  0  0  0  0  0  0  0  0  0  0  0
   -3.2947   16.4695    2.6466 H   0  0  0  0  0  0  0  0  0  0  0  0
    7.5191   17.6182   -3.8798 H   0  0  0  0  0  0  0  0  0  0  0  0
    4.9331   19.0180   -4.4928 H   0  0  0  0  0  0  0  0  0  0  0  0
    6.0407   18.4479   -5.7762 H   0  0  0  0  0  0  0  0  0  0  0  0
    3.2142   18.0338   -6.1846 H   0  0  0  0  0  0  0  0  0  0  0  0
    5.6111   18.5450   -7.8605 H   0  0  0  0  0  0  0  0  0  0  0  0
    3.3315   16.9372   -8.2901 H   0  0  0  0  0  0  0  0  0  0  0  0
    4.2436   19.7406   -9.5626 H   0  0  0  0  0  0  0  0  0  0  0  0
    2.0184   18.5126   -8.3781 H   0  0  0  0  0  0  0  0  0  0  0  0
    2.5896   21.0261   -7.7982 H   0  0  0  0  0  0  0  0  0  0  0  0
    4.0190   22.1126   -9.9226 H   0  0  0  0  0  0  0  0  0  0  0  0
    2.9775   25.8002  -10.9660 H   0  0  0  0  0  0  0  0  0  0  0  0
    2.6666   24.4667   -9.9497 H   0  0  0  0  0  0  0  0  0  0  0  0
    6.9145   24.5631   -8.8827 H   0  0  0  0  0  0  0  0  0  0  0  0
    7.5183   22.9569   -7.1753 H   0  0  0  0  0  0  0  0  0  0  0  0
    5.9873   21.1625   -6.5975 H   0  0  0  0  0  0  0  0  0  0  0  0
  1 23  1  6  0  0  0
  1  2  1  0  0  0  0
  1  4  1  0  0  0  0
  2 45  1  0  0  0  0
  3  1  2  0  0  0  0
  5  4  1  0  0  0  0
  5  6  1  0  0  0  0
  5 46  1  0  0  0  0
  5 47  1  0  0  0  0
  6  8  1  0  0  0  0
  6 48  1  6  0  0  0
  7  6  1  0  0  0  0
  7 12  1  0  0  0  0
  8 10  1  0  0  0  0
  8  9  1  0  0  0  0
  8 49  1  6  0  0  0
  9 50  1  0  0  0  0
 10 11  1  0  0  0  0
 10 51  1  6  0  0  0
 11 52  1  0  0  0  0
 12 10  1  0  0  0  0
 12 53  1  1  0  0  0
 13 12  1  0  0  0  0
 13 22  1  0  0  0  0
 14 15  2  0  0  0  0
 14 13  1  0  0  0  0
 14 54  1  0  0  0  0
 15 16  1  0  0  0  0
 16 17  2  0  0  0  0
 16 22  1  0  0  0  0
 17 19  1  0  0  0  0
 18 17  1  0  0  0  0
 18 55  1  0  0  0  0
 18 56  1  0  0  0  0
 19 20  2  0  0  0  0
 20 57  1  0  0  0  0
 21 20  1  0  0  0  0
 22 21  2  0  0  0  0
 24 25  2  6  0  0  0
 24 23  1  0  0  0  0
 24 26  1  0  0  0  0
 26 58  1  0  0  0  0
 27 24  1  0  0  0  0
 28 27  1  0  0  0  0
 28 59  1  0  0  0  0
 28 60  1  0  0  0  0
 29 30  1  0  0  0  0
 29 28  1  0  0  0  0
 29 61  1  1  0  0  0
 31 29  1  0  0  0  0
 31 62  1  6  0  0  0
 32 31  1  0  0  0  0
 32 63  1  0  0  0  0
 33 31  1  0  0  0  0
 33 35  1  0  0  0  0
 33 64  1  6  0  0  0
 34 33  1  0  0  0  0
 34 65  1  0  0  0  0
 35 30  1  0  0  0  0
 35 66  1  6  0  0  0
 36 35  1  0  0  0  0
 36 44  1  0  0  0  0
 37 36  1  0  0  0  0
 37 67  1  0  0  0  0
 38 37  1  0  0  0  0
 38 42  2  0  0  0  0
 39 38  1  0  0  0  0
 40 39  2  0  0  0  0
 41 39  1  0  0  0  0
 41 68  1  0  0  0  0
 41 69  1  0  0  0  0
 42 43  1  0  0  0  0
 42 70  1  0  0  0  0
 43 44  2  0  0  0  0
 43 71  1  0  0  0  0
 44 72  1  0  0  0  0
M  END
