1lc3.pdb
 OpenBabel03151520153D

144152  0  0  1  0  0  0  0  0999 V2000
   32.6370   16.8400   62.2080 P   0  0  2  0  0  0  0  0  0  0  0  0
   32.9070   15.4820   61.6540 O   0  0  0  0  0  0  0  0  0  0  0  0
   33.1550   16.9980   63.6430 O   0  0  0  0  0  0  0  0  0  0  0  0
   31.1380   17.1680   62.1270 O   0  0  0  0  0  0  0  0  0  0  0  0
   30.0770   16.4620   62.8960 C   0  0  0  0  0  0  0  0  0  0  0  0
   28.7210   16.8630   62.4580 C   0  0  1  0  0  0  0  0  0  0  0  0
   28.5980   18.3260   62.3520 O   0  0  0  0  0  0  0  0  0  0  0  0
   28.1990   16.3360   61.0570 C   0  0  1  0  0  0  0  0  0  0  0  0
   26.7980   15.8990   61.1930 O   0  0  0  0  0  0  0  0  0  0  0  0
   28.3650   17.4800   60.1060 C   0  0  1  0  0  0  0  0  0  0  0  0
   27.6420   17.4480   58.9360 O   0  0  0  0  0  0  0  0  0  0  0  0
   28.0750   18.6380   61.1180 C   0  0  2  0  0  0  0  0  0  0  0  0
   28.6670   19.8900   60.7570 N   0  0  0  0  0  0  0  0  0  0  0  0
   29.9840   20.2490   60.5500 C   0  0  0  0  0  0  0  0  0  0  0  0
   30.1770   21.5080   60.2260 N   0  0  0  0  0  0  0  0  0  0  0  0
   28.9280   22.0780   60.2000 C   0  0  0  0  0  0  0  0  0  0  0  0
   28.4760   23.5040   59.8950 C   0  0  0  0  0  0  0  0  0  0  0  0
   29.2590   24.5080   59.5820 N   0  0  0  0  0  0  0  0  0  0  0  0
   27.0600   23.6690   59.9830 N   0  0  0  0  0  0  0  0  0  0  0  0
   26.1730   22.7230   60.2910 C   0  0  0  0  0  0  0  0  0  0  0  0
   26.5700   21.3770   60.5820 N   0  0  0  0  0  0  0  0  0  0  0  0
   27.9800   21.0950   60.5240 C   0  0  0  0  0  0  0  0  0  0  0  0
   33.4580   17.7760   61.2570 O   0  0  0  0  0  0  0  0  0  0  0  0
   33.2590   18.2940   59.7270 P   0  0  2  0  0  0  0  0  0  0  0  0
   31.9850   17.9460   59.1640 O   0  0  0  0  0  0  0  0  0  0  0  0
   34.4490   17.6510   59.1480 O   0  0  0  0  0  0  0  0  0  0  0  0
   33.6370   19.7990   59.5330 O   0  0  0  0  0  0  0  0  0  0  0  0
   34.4550   20.5700   60.3770 C   0  0  0  0  0  0  0  0  0  0  0  0
   34.8570   21.8210   59.7060 C   0  0  1  0  0  0  0  0  0  0  0  0
   34.4680   21.7330   58.2140 O   0  0  0  0  0  0  0  0  0  0  0  0
   34.0010   23.0550   60.1500 C   0  0  1  0  0  0  0  0  0  0  0  0
   34.8290   24.1120   60.0940 O   0  0  0  0  0  0  0  0  0  0  0  0
   32.8160   23.0800   59.1480 C   0  0  1  0  0  0  0  0  0  0  0  0
   32.1490   24.2820   59.1310 O   0  0  0  0  0  0  0  0  0  0  0  0
   33.5650   22.7470   57.8820 C   0  0  2  0  0  0  0  0  0  0  0  0
   32.7410   22.2660   56.7030 N   0  0  0  0  0  0  0  0  0  0  0  0
   32.1650   20.9590   56.6720 C   0  0  0  0  0  0  0  0  0  0  0  0
   31.4560   20.7000   55.5130 C   0  0  0  0  0  0  0  0  0  0  0  0
   30.8270   19.2130   55.5320 C   0  0  0  0  0  0  0  0  0  0  0  0
   30.1600   18.8600   54.5330 O   0  0  0  0  0  0  0  0  0  0  0  0
   31.0630   18.4090   56.6560 N   0  0  0  0  0  0  0  0  0  0  0  0
   31.2710   21.5910   54.4140 C   0  0  0  0  0  0  0  0  0  0  0  0
   31.9100   22.8800   54.5830 C   0  0  0  0  0  0  0  0  0  0  0  0
   32.6390   23.2190   55.7150 C   0  0  0  0  0  0  0  0  0  0  0  0
   65.3340    7.8540   49.7540 P   0  0  2  0  0  0  0  0  0  0  0  0
   66.7690    8.2290   49.5450 O   0  0  0  0  0  0  0  0  0  0  0  0
   65.2210    6.5240   50.5030 O   0  0  0  0  0  0  0  0  0  0  0  0
   64.6020    7.7480   48.4130 O   0  0  0  0  0  0  0  0  0  0  0  0
   65.1460    6.7420   47.4660 C   0  0  0  0  0  0  0  0  0  0  0  0
   64.9930    6.9360   46.0130 C   0  0  1  0  0  0  0  0  0  0  0  0
   66.0080    7.9030   45.5410 O   0  0  0  0  0  0  0  0  0  0  0  0
   65.2740    5.6480   45.1670 C   0  0  1  0  0  0  0  0  0  0  0  0
   64.4070    5.6150   43.9820 O   0  0  0  0  0  0  0  0  0  0  0  0
   66.7260    5.7220   44.8560 C   0  0  1  0  0  0  0  0  0  0  0  0
   67.2350    4.8580   43.9230 O   0  0  0  0  0  0  0  0  0  0  0  0
   66.8060    7.2780   44.5950 C   0  0  2  0  0  0  0  0  0  0  0  0
   68.1240    7.7990   44.8110 N   0  0  0  0  0  0  0  0  0  0  0  0
   68.6670    8.4700   45.8930 C   0  0  0  0  0  0  0  0  0  0  0  0
   69.9270    8.8100   45.7730 N   0  0  0  0  0  0  0  0  0  0  0  0
   70.3130    8.3550   44.5320 C   0  0  0  0  0  0  0  0  0  0  0  0
   71.6510    8.4320   43.8040 C   0  0  0  0  0  0  0  0  0  0  0  0
   72.7430    8.9820   44.2630 N   0  0  0  0  0  0  0  0  0  0  0  0
   71.6190    7.8240   42.5140 N   0  0  0  0  0  0  0  0  0  0  0  0
   70.5700    7.2340   41.9430 C   0  0  0  0  0  0  0  0  0  0  0  0
   69.3040    7.1460   42.6010 N   0  0  0  0  0  0  0  0  0  0  0  0
   69.2160    7.7290   43.9180 C   0  0  0  0  0  0  0  0  0  0  0  0
   64.6150    8.9100   50.6870 O   0  0  0  0  0  0  0  0  0  0  0  0
   65.1050    9.6020   52.0990 P   0  0  2  0  0  0  0  0  0  0  0  0
   66.4250    9.1340   52.4000 O   0  0  0  0  0  0  0  0  0  0  0  0
   64.0620    9.2320   53.0840 O   0  0  0  0  0  0  0  0  0  0  0  0
   65.0090   11.2030   51.9440 O   0  0  0  0  0  0  0  0  0  0  0  0
   64.2350   11.8930   50.9250 C   0  0  0  0  0  0  0  0  0  0  0  0
   62.7520   11.9250   51.0980 C   0  0  1  0  0  0  0  0  0  0  0  0
   62.3860   11.1830   52.3720 O   0  0  0  0  0  0  0  0  0  0  0  0
   62.0120   13.3130   51.3510 C   0  0  1  0  0  0  0  0  0  0  0  0
   60.8270   13.1750   50.6790 O   0  0  0  0  0  0  0  0  0  0  0  0
   61.8490   13.4150   52.8860 C   0  0  1  0  0  0  0  0  0  0  0  0
   60.8380   14.2800   53.2720 O   0  0  0  0  0  0  0  0  0  0  0  0
   61.5730   11.9700   53.1990 C   0  0  2  0  0  0  0  0  0  0  0  0
   61.8040   11.5450   54.6280 N   0  0  0  0  0  0  0  0  0  0  0  0
   63.1000   11.6080   55.2160 C   0  0  0  0  0  0  0  0  0  0  0  0
   63.1330   11.1830   56.5270 C   0  0  0  0  0  0  0  0  0  0  0  0
   64.6410   11.2870   57.1160 C   0  0  0  0  0  0  0  0  0  0  0  0
   64.8300   10.9340   58.3000 O   0  0  0  0  0  0  0  0  0  0  0  0
   65.6470   11.7680   56.2590 N   0  0  0  0  0  0  0  0  0  0  0  0
   62.0180   10.7100   57.2950 C   0  0  0  0  0  0  0  0  0  0  0  0
   60.7550   10.6990   56.5660 C   0  0  0  0  0  0  0  0  0  0  0  0
   60.6490   11.1140   55.2420 C   0  0  0  0  0  0  0  0  0  0  0  0
   34.1012   16.7864   63.6703 H   0  0  0  0  0  0  0  0  0  0  0  0
   30.1886   16.6952   63.9343 H   0  0  0  0  0  0  0  0  0  0  0  0
   30.1849   15.4115   62.7238 H   0  0  0  0  0  0  0  0  0  0  0  0
   28.1340   16.4073   63.2279 H   0  0  0  0  0  0  0  0  0  0  0  0
   28.7406   15.4869   60.6955 H   0  0  0  0  0  0  0  0  0  0  0  0
   26.2596   16.6365   61.5201 H   0  0  0  0  0  0  0  0  0  0  0  0
   29.3111   17.5348   59.6092 H   0  0  0  0  0  0  0  0  0  0  0  0
   26.6956   17.3951   59.1421 H   0  0  0  0  0  0  0  0  0  0  0  0
   27.0097   18.7380   61.1203 H   0  0  0  0  0  0  0  0  0  0  0  0
   30.7614   19.5767   60.6431 H   0  0  0  0  0  0  0  0  0  0  0  0
   28.8731   25.3955   59.4015 H   0  0  0  0  0  0  0  0  0  0  0  0
   30.2329   24.3743   59.5275 H   0  0  0  0  0  0  0  0  0  0  0  0
   25.1707   22.9670   60.3208 H   0  0  0  0  0  0  0  0  0  0  0  0
   31.9303   18.2820   58.2557 H   0  0  0  0  0  0  0  0  0  0  0  0
   35.3304   20.0082   60.6281 H   0  0  0  0  0  0  0  0  0  0  0  0
   33.9061   20.8135   61.2626 H   0  0  0  0  0  0  0  0  0  0  0  0
   35.8977   21.9346   59.9273 H   0  0  0  0  0  0  0  0  0  0  0  0
   33.5941   23.0400   61.1395 H   0  0  0  0  0  0  0  0  0  0  0  0
   35.2241   24.1667   59.2098 H   0  0  0  0  0  0  0  0  0  0  0  0
   32.0065   22.4142   59.3634 H   0  0  0  0  0  0  0  0  0  0  0  0
   32.7764   24.9973   58.9420 H   0  0  0  0  0  0  0  0  0  0  0  0
   34.0044   23.6636   57.5478 H   0  0  0  0  0  0  0  0  0  0  0  0
   32.2678   20.2757   57.4385 H   0  0  0  0  0  0  0  0  0  0  0  0
   30.6923   17.4978   56.6961 H   0  0  0  0  0  0  0  0  0  0  0  0
   31.5994   18.7556   57.4052 H   0  0  0  0  0  0  0  0  0  0  0  0
   31.6726   21.1295   53.5361 H   0  0  0  0  0  0  0  0  0  0  0  0
   31.8193   23.5777   53.8280 H   0  0  0  0  0  0  0  0  0  0  0  0
   33.0848   24.1448   55.8114 H   0  0  0  0  0  0  0  0  0  0  0  0
   65.6454    5.8233   49.9835 H   0  0  0  0  0  0  0  0  0  0  0  0
   66.1962    6.6730   47.6590 H   0  0  0  0  0  0  0  0  0  0  0  0
   64.5505    5.8747   47.6613 H   0  0  0  0  0  0  0  0  0  0  0  0
   63.9788    7.2501   45.8805 H   0  0  0  0  0  0  0  0  0  0  0  0
   65.0516    4.7349   45.6785 H   0  0  0  0  0  0  0  0  0  0  0  0
   64.5479    6.4176   43.4559 H   0  0  0  0  0  0  0  0  0  0  0  0
   67.3867    5.3592   45.6155 H   0  0  0  0  0  0  0  0  0  0  0  0
   66.7763    4.9875   43.0782 H   0  0  0  0  0  0  0  0  0  0  0  0
   66.5085    7.4513   43.5819 H   0  0  0  0  0  0  0  0  0  0  0  0
   68.1163    8.6881   46.7381 H   0  0  0  0  0  0  0  0  0  0  0  0
   73.5616    8.9821   43.7160 H   0  0  0  0  0  0  0  0  0  0  0  0
   72.7476    9.3965   45.1560 H   0  0  0  0  0  0  0  0  0  0  0  0
   70.6742    6.8292   40.9994 H   0  0  0  0  0  0  0  0  0  0  0  0
   63.2066    9.5897   52.7989 H   0  0  0  0  0  0  0  0  0  0  0  0
   64.5770   12.9063   50.8924 H   0  0  0  0  0  0  0  0  0  0  0  0
   64.3956   11.3304   50.0292 H   0  0  0  0  0  0  0  0  0  0  0  0
   62.4428   11.5365   50.1502 H   0  0  0  0  0  0  0  0  0  0  0  0
   62.5076   14.2000   51.0156 H   0  0  0  0  0  0  0  0  0  0  0  0
   60.3755   12.3714   50.9813 H   0  0  0  0  0  0  0  0  0  0  0  0
   62.6847   13.8311   53.4089 H   0  0  0  0  0  0  0  0  0  0  0  0
   60.0043   14.0085   52.8572 H   0  0  0  0  0  0  0  0  0  0  0  0
   60.5252   11.8357   53.0287 H   0  0  0  0  0  0  0  0  0  0  0  0
   63.9350   11.9403   54.7087 H   0  0  0  0  0  0  0  0  0  0  0  0
   65.4244   12.0283   55.3360 H   0  0  0  0  0  0  0  0  0  0  0  0
   66.5738   11.8444   56.5821 H   0  0  0  0  0  0  0  0  0  0  0  0
   61.9067   11.3428   58.1506 H   0  0  0  0  0  0  0  0  0  0  0  0
   59.9057   10.3702   57.0515 H   0  0  0  0  0  0  0  0  0  0  0  0
   59.7459   11.0995   54.7428 H   0  0  0  0  0  0  0  0  0  0  0  0
  1 23  1  6  0  0  0
  1  3  1  0  0  0  0
  2  1  2  0  0  0  0
  3 89  1  0  0  0  0
  4  1  1  0  0  0  0
  4  5  1  0  0  0  0
  5 90  1  0  0  0  0
  5 91  1  0  0  0  0
  6  5  1  0  0  0  0
  6 92  1  1  0  0  0
  7  6  1  0  0  0  0
  8  9  1  0  0  0  0
  8  6  1  0  0  0  0
  8 93  1  6  0  0  0
  9 94  1  0  0  0  0
 10  8  1  0  0  0  0
 10 12  1  0  0  0  0
 10 95  1  6  0  0  0
 11 10  1  0  0  0  0
 11 96  1  0  0  0  0
 12  7  1  0  0  0  0
 12 97  1  1  0  0  0
 13 12  1  0  0  0  0
 14 13  1  0  0  0  0
 14 98  1  0  0  0  0
 15 14  2  0  0  0  0
 16 15  1  0  0  0  0
 16 22  2  0  0  0  0
 17 19  2  0  0  0  0
 17 16  1  0  0  0  0
 18 17  1  0  0  0  0
 18 99  1  0  0  0  0
 18100  1  0  0  0  0
 19 20  1  0  0  0  0
 20 21  2  0  0  0  0
 20101  1  0  0  0  0
 22 21  1  0  0  0  0
 22 13  1  0  0  0  0
 24 26  2  6  0  0  0
 24 23  1  0  0  0  0
 25 24  1  0  0  0  0
 25102  1  0  0  0  0
 27 24  1  0  0  0  0
 27 28  1  0  0  0  0
 28103  1  0  0  0  0
 28104  1  0  0  0  0
 29 31  1  0  0  0  0
 29 28  1  0  0  0  0
 29105  1  1  0  0  0
 30 29  1  0  0  0  0
 31106  1  1  0  0  0
 32 31  1  0  0  0  0
 32107  1  0  0  0  0
 33 31  1  0  0  0  0
 33108  1  1  0  0  0
 34 33  1  0  0  0  0
 34109  1  0  0  0  0
 35 30  1  0  0  0  0
 35 33  1  0  0  0  0
 35110  1  6  0  0  0
 36 35  1  0  0  0  0
 37 36  1  0  0  0  0
 37111  1  0  0  0  0
 38 39  1  0  0  0  0
 38 37  2  0  0  0  0
 39 41  1  0  0  0  0
 40 39  2  0  0  0  0
 41112  1  0  0  0  0
 41113  1  0  0  0  0
 42 43  1  0  0  0  0
 42 38  1  0  0  0  0
 42114  1  0  0  0  0
 43 44  2  0  0  0  0
 43115  1  0  0  0  0
 44 36  1  0  0  0  0
 44116  1  0  0  0  0
 45 48  1  6  0  0  0
 45 47  1  0  0  0  0
 45 67  1  0  0  0  0
 46 45  2  0  0  0  0
 47117  1  0  0  0  0
 49 48  1  0  0  0  0
 49118  1  0  0  0  0
 49119  1  0  0  0  0
 50 49  1  0  0  0  0
 50120  1  6  0  0  0
 51 50  1  0  0  0  0
 52 50  1  0  0  0  0
 52121  1  1  0  0  0
 53 52  1  0  0  0  0
 53122  1  0  0  0  0
 54 52  1  0  0  0  0
 54123  1  1  0  0  0
 55 54  1  0  0  0  0
 55124  1  0  0  0  0
 56 57  1  0  0  0  0
 56 54  1  0  0  0  0
 56 51  1  0  0  0  0
 56125  1  6  0  0  0
 57 58  1  0  0  0  0
 58126  1  0  0  0  0
 59 58  2  0  0  0  0
 60 59  1  0  0  0  0
 61 62  1  0  0  0  0
 61 60  2  0  0  0  0
 62127  1  0  0  0  0
 62128  1  0  0  0  0
 63 61  1  0  0  0  0
 64 63  2  0  0  0  0
 64 65  1  0  0  0  0
 64129  1  0  0  0  0
 65 66  2  0  0  0  0
 66 60  1  0  0  0  0
 66 57  1  0  0  0  0
 68 67  1  6  0  0  0
 68 69  2  0  0  0  0
 68 70  1  0  0  0  0
 70130  1  0  0  0  0
 71 68  1  0  0  0  0
 72 73  1  0  0  0  0
 72 71  1  0  0  0  0
 72131  1  0  0  0  0
 72132  1  0  0  0  0
 73 75  1  0  0  0  0
 73 74  1  0  0  0  0
 73133  1  6  0  0  0
 74 79  1  0  0  0  0
 75 77  1  0  0  0  0
 75134  1  6  0  0  0
 76 75  1  0  0  0  0
 76135  1  0  0  0  0
 77 79  1  0  0  0  0
 77 78  1  0  0  0  0
 77136  1  1  0  0  0
 78137  1  0  0  0  0
 79 80  1  0  0  0  0
 79138  1  6  0  0  0
 80 81  1  0  0  0  0
 80 88  1  0  0  0  0
 81 82  2  0  0  0  0
 81139  1  0  0  0  0
 82 83  1  0  0  0  0
 82 86  1  0  0  0  0
 83 84  2  0  0  0  0
 85 83  1  0  0  0  0
 85140  1  0  0  0  0
 85141  1  0  0  0  0
 86142  1  0  0  0  0
 87 86  1  0  0  0  0
 87143  1  0  0  0  0
 88 87  2  0  0  0  0
 88144  1  0  0  0  0
M  END
