1lua.pdb
 OpenBabel03151520153D

 77 81  0  0  1  0  0  0  0  0999 V2000
   36.0380   33.3010   44.2410 P   0  0  2  0  0  0  0  0  0  0  0  0
   35.8310   34.7020   44.5930 O   0  0  0  0  0  0  0  0  0  0  0  0
   36.7640   32.4330   45.1670 O   0  0  0  0  0  0  0  0  0  0  0  0
   36.7420   33.3020   42.7680 O   0  0  0  0  0  0  0  0  0  0  0  0
   36.7760   32.1150   41.9530 C   0  0  0  0  0  0  0  0  0  0  0  0
   38.0580   32.0650   41.1410 C   0  0  1  0  0  0  0  0  0  0  0  0
   38.0240   33.0750   40.1560 O   0  0  0  0  0  0  0  0  0  0  0  0
   39.3400   32.3140   41.8910 C   0  0  1  0  0  0  0  0  0  0  0  0
   39.7580   31.1370   42.5890 O   0  0  0  0  0  0  0  0  0  0  0  0
   40.3180   32.6240   40.7570 C   0  0  1  0  0  0  0  0  0  0  0  0
   40.9280   31.4380   40.1640 O   0  0  0  0  0  0  0  0  0  0  0  0
   39.3930   33.2180   39.6810 C   0  0  2  0  0  0  0  0  0  0  0  0
   39.6430   34.6470   39.3760 N   0  0  0  0  0  0  0  0  0  0  0  0
   39.5960   35.7660   40.2030 C   0  0  0  0  0  0  0  0  0  0  0  0
   39.8860   36.8750   39.5640 N   0  0  0  0  0  0  0  0  0  0  0  0
   40.1370   36.4780   38.2650 C   0  0  0  0  0  0  0  0  0  0  0  0
   40.4960   37.1950   37.0940 C   0  0  0  0  0  0  0  0  0  0  0  0
   40.6580   38.5120   37.1040 N   0  0  0  0  0  0  0  0  0  0  0  0
   40.6770   36.4900   35.9390 N   0  0  0  0  0  0  0  0  0  0  0  0
   40.5090   35.1440   35.9180 C   0  0  0  0  0  0  0  0  0  0  0  0
   40.1660   34.3920   36.9780 N   0  0  0  0  0  0  0  0  0  0  0  0
   39.9920   35.1310   38.1300 C   0  0  0  0  0  0  0  0  0  0  0  0
   34.6380   32.6360   43.8690 O   0  0  0  0  0  0  0  0  0  0  0  0
   33.5130   31.7950   44.6570 P   0  0  1  0  0  0  0  0  0  0  0  0
   33.8570   30.3690   44.5420 O   0  0  0  0  0  0  0  0  0  0  0  0
   33.4400   32.3960   46.0330 O   0  0  0  0  0  0  0  0  0  0  0  0
   32.1250   32.1950   44.0490 O   0  0  0  0  0  0  0  0  0  0  0  0
   31.7720   31.7570   42.7340 C   0  0  0  0  0  0  0  0  0  0  0  0
   30.7690   32.7140   42.0790 C   0  0  1  0  0  0  0  0  0  0  0  0
   29.4390   32.4200   42.5110 O   0  0  0  0  0  0  0  0  0  0  0  0
   30.9760   34.2200   42.3710 C   0  0  1  0  0  0  0  0  0  0  0  0
   30.7800   35.0690   41.2280 O   0  0  0  0  0  0  0  0  0  0  0  0
   29.9850   34.5650   43.4790 C   0  0  1  0  0  0  0  0  0  0  0  0
   29.4800   35.8780   43.3850 O   0  0  0  0  0  0  0  0  0  0  0  0
   28.8700   33.5030   43.2580 C   0  0  2  0  0  0  0  0  0  0  0  0
   28.2370   33.0720   44.5320 N   0  0  0  0  0  0  0  0  0  0  0  0
   26.9150   33.5390   44.6950 C   0  0  0  0  0  0  0  0  0  0  0  0
   26.2180   33.1820   45.9090 C   0  0  0  0  0  0  0  0  0  0  0  0
   24.8420   33.6590   46.1650 C   0  0  0  0  0  0  0  0  0  0  0  0
   24.0850   33.1290   46.9850 O   0  0  0  0  0  0  0  0  0  0  0  0
   24.3370   34.6950   45.4810 N   0  0  0  0  0  0  0  0  0  0  0  0
   26.8870   32.3620   46.8490 C   0  0  0  0  0  0  0  0  0  0  0  0
   28.1690   31.9260   46.6740 C   0  0  0  0  0  0  0  0  0  0  0  0
   28.8520   32.2810   45.5150 C   0  0  0  0  0  0  0  0  0  0  0  0
   42.5080   31.2620   39.8360 P   0  0  0  0  0  0  0  0  0  0  0  0
   42.8710   29.8550   40.0670 O   0  0  0  0  0  0  0  0  0  0  0  0
   42.5630   31.6610   38.4160 O   0  0  0  0  0  0  0  0  0  0  0  0
   43.1890   32.2330   40.7050 O   0  0  0  0  0  0  0  0  0  0  0  0
   36.8195   31.5386   44.7956 H   0  0  0  0  0  0  0  0  0  0  0  0
   36.7251   31.2526   42.5844 H   0  0  0  0  0  0  0  0  0  0  0  0
   35.9420   32.1309   41.2829 H   0  0  0  0  0  0  0  0  0  0  0  0
   38.0769   31.0604   40.7730 H   0  0  0  0  0  0  0  0  0  0  0  0
   39.2611   33.0848   42.6289 H   0  0  0  0  0  0  0  0  0  0  0  0
   39.8455   30.4027   41.9612 H   0  0  0  0  0  0  0  0  0  0  0  0
   41.1199   33.2371   41.1119 H   0  0  0  0  0  0  0  0  0  0  0  0
   39.5817   32.6862   38.7719 H   0  0  0  0  0  0  0  0  0  0  0  0
   39.3594   35.7277   41.2068 H   0  0  0  0  0  0  0  0  0  0  0  0
   40.9073   38.9836   36.2765 H   0  0  0  0  0  0  0  0  0  0  0  0
   40.5289   39.0175   37.9389 H   0  0  0  0  0  0  0  0  0  0  0  0
   40.6559   34.6599   35.0185 H   0  0  0  0  0  0  0  0  0  0  0  0
   33.2057   33.3347   45.9638 H   0  0  0  0  0  0  0  0  0  0  0  0
   32.6557   31.7128   42.1323 H   0  0  0  0  0  0  0  0  0  0  0  0
   31.3174   30.7914   42.8101 H   0  0  0  0  0  0  0  0  0  0  0  0
   30.9316   32.5513   41.0340 H   0  0  0  0  0  0  0  0  0  0  0  0
   31.9928   34.3926   42.6561 H   0  0  0  0  0  0  0  0  0  0  0  0
   29.8710   34.9705   40.9042 H   0  0  0  0  0  0  0  0  0  0  0  0
   30.4282   34.5416   44.4526 H   0  0  0  0  0  0  0  0  0  0  0  0
   29.0522   35.9989   42.5229 H   0  0  0  0  0  0  0  0  0  0  0  0
   28.0637   33.9283   42.6977 H   0  0  0  0  0  0  0  0  0  0  0  0
   26.4610   34.1168   43.9704 H   0  0  0  0  0  0  0  0  0  0  0  0
   24.8903   35.1602   44.8127 H   0  0  0  0  0  0  0  0  0  0  0  0
   23.4127   34.9908   45.6469 H   0  0  0  0  0  0  0  0  0  0  0  0
   26.3833   32.0812   47.7048 H   0  0  0  0  0  0  0  0  0  0  0  0
   28.6251   31.3411   47.3916 H   0  0  0  0  0  0  0  0  0  0  0  0
   29.7287   32.8091   45.8271 H   0  0  0  0  0  0  0  0  0  0  0  0
   42.3772   29.2888   39.4535 H   0  0  0  0  0  0  0  0  0  0  0  0
   44.1466   32.1814   40.5593 H   0  0  0  0  0  0  0  0  0  0  0  0
  1  4  1  6  0  0  0
  1  2  2  0  0  0  0
  1  3  1  0  0  0  0
  3 49  1  0  0  0  0
  5  4  1  0  0  0  0
  5 50  1  0  0  0  0
  5 51  1  0  0  0  0
  6  8  1  0  0  0  0
  6  5  1  0  0  0  0
  6 52  1  6  0  0  0
  7  6  1  0  0  0  0
  8  9  1  0  0  0  0
  8 53  1  1  0  0  0
  9 54  1  0  0  0  0
 10  8  1  0  0  0  0
 10 55  1  1  0  0  0
 11 10  1  0  0  0  0
 12  7  1  0  0  0  0
 12 10  1  0  0  0  0
 12 56  1  6  0  0  0
 13 12  1  0  0  0  0
 13 14  1  0  0  0  0
 14 57  1  0  0  0  0
 15 14  2  0  0  0  0
 16 15  1  0  0  0  0
 17 18  1  0  0  0  0
 17 16  2  0  0  0  0
 18 58  1  0  0  0  0
 18 59  1  0  0  0  0
 19 17  1  0  0  0  0
 20 19  2  0  0  0  0
 20 21  1  0  0  0  0
 20 60  1  0  0  0  0
 21 22  2  0  0  0  0
 22 16  1  0  0  0  0
 22 13  1  0  0  0  0
 23  1  1  0  0  0  0
 24 23  1  6  0  0  0
 24 26  1  0  0  0  0
 25 24  2  0  0  0  0
 26 61  1  0  0  0  0
 27 24  1  0  0  0  0
 28 27  1  0  0  0  0
 28 62  1  0  0  0  0
 28 63  1  0  0  0  0
 29 31  1  0  0  0  0
 29 30  1  0  0  0  0
 29 28  1  0  0  0  0
 29 64  1  6  0  0  0
 30 35  1  0  0  0  0
 31 33  1  0  0  0  0
 31 65  1  1  0  0  0
 32 31  1  0  0  0  0
 32 66  1  0  0  0  0
 33 67  1  1  0  0  0
 34 33  1  0  0  0  0
 34 68  1  0  0  0  0
 35 33  1  0  0  0  0
 35 36  1  0  0  0  0
 35 69  1  6  0  0  0
 36 37  1  0  0  0  0
 36 44  1  0  0  0  0
 37 38  2  0  0  0  0
 37 70  1  0  0  0  0
 38 39  1  0  0  0  0
 38 42  1  0  0  0  0
 39 40  2  0  0  0  0
 41 39  1  0  0  0  0
 41 71  1  0  0  0  0
 41 72  1  0  0  0  0
 42 73  1  0  0  0  0
 43 42  2  0  0  0  0
 43 74  1  0  0  0  0
 44 43  1  0  0  0  0
 44 75  1  0  0  0  0
 45 46  1  0  0  0  0
 45 11  1  0  0  0  0
 45 48  1  0  0  0  0
 46 76  1  0  0  0  0
 47 45  2  0  0  0  0
 48 77  1  0  0  0  0
M  END
