1mg5.pdb
 OpenBabel03151520153D

 77 81  0  0  1  0  0  0  0  0999 V2000
   -0.4390   -6.0360   32.5450 P   0  0  2  0  0  0  0  0  0  0  0  0
   -1.2070   -5.5630   31.3640 O   0  0  0  0  0  0  0  0  0  0  0  0
   -1.2470   -6.6880   33.5930 O   0  0  0  0  0  0  0  0  0  0  0  0
    0.3430   -4.8770   33.2880 O   0  0  0  0  0  0  0  0  0  0  0  0
    0.8290   -3.7240   32.5030 C   0  0  0  0  0  0  0  0  0  0  0  0
    1.2440   -2.7380   33.5970 C   0  0  1  0  0  0  0  0  0  0  0  0
    1.7410   -1.5490   32.9240 O   0  0  0  0  0  0  0  0  0  0  0  0
    0.0480   -2.2550   34.4470 C   0  0  1  0  0  0  0  0  0  0  0  0
    0.5380   -1.8330   35.6960 O   0  0  0  0  0  0  0  0  0  0  0  0
   -0.4370   -1.0660   33.6160 C   0  0  1  0  0  0  0  0  0  0  0  0
   -1.3840   -0.1930   34.2150 O   0  0  0  0  0  0  0  0  0  0  0  0
    0.9520   -0.4490   33.3240 C   0  0  2  0  0  0  0  0  0  0  0  0
    0.8280    0.5350   32.2430 N   0  0  0  0  0  0  0  0  0  0  0  0
    0.4260    0.3700   30.9500 C   0  0  0  0  0  0  0  0  0  0  0  0
    0.3560    1.5410   30.2900 N   0  0  0  0  0  0  0  0  0  0  0  0
    0.7230    2.4700   31.2250 C   0  0  0  0  0  0  0  0  0  0  0  0
    0.8550    3.8810   31.1600 C   0  0  0  0  0  0  0  0  0  0  0  0
    0.6040    4.5550   30.0450 N   0  0  0  0  0  0  0  0  0  0  0  0
    1.2480    4.5030   32.2970 N   0  0  0  0  0  0  0  0  0  0  0  0
    1.4910    3.7920   33.4360 C   0  0  0  0  0  0  0  0  0  0  0  0
    1.3880    2.4930   33.5800 N   0  0  0  0  0  0  0  0  0  0  0  0
    0.9930    1.8900   32.4430 C   0  0  0  0  0  0  0  0  0  0  0  0
    0.7230   -6.9860   31.9880 O   0  0  0  0  0  0  0  0  0  0  0  0
    1.9660   -7.6370   32.7260 P   0  0  2  0  0  0  0  0  0  0  0  0
    2.1190   -9.0010   32.1660 O   0  0  0  0  0  0  0  0  0  0  0  0
    1.7990   -7.5650   34.1870 O   0  0  0  0  0  0  0  0  0  0  0  0
    3.1170   -6.6490   32.1860 O   0  0  0  0  0  0  0  0  0  0  0  0
    3.9800   -5.9800   33.1140 C   0  0  0  0  0  0  0  0  0  0  0  0
    5.3010   -5.6800   32.4230 C   0  0  1  0  0  0  0  0  0  0  0  0
    5.9350   -6.9540   32.1440 O   0  0  0  0  0  0  0  0  0  0  0  0
    5.2340   -4.9100   31.1130 C   0  0  1  0  0  0  0  0  0  0  0  0
    6.3520   -4.0170   30.9610 O   0  0  0  0  0  0  0  0  0  0  0  0
    5.2920   -6.0530   30.0920 C   0  0  1  0  0  0  0  0  0  0  0  0
    5.8170   -5.5660   28.8480 O   0  0  0  0  0  0  0  0  0  0  0  0
    6.3230   -6.9550   30.7740 C   0  0  2  0  0  0  0  0  0  0  0  0
    6.3780   -8.3390   30.3210 N   0  0  2  0  0  0  0  0  0  0  0  0
    5.3130   -9.1550   30.4870 C   0  0  0  0  0  0  0  0  0  0  0  0
    5.3940  -10.4330   29.9930 C   0  0  2  0  0  0  0  0  0  0  0  0
    4.2400  -11.4800   30.0050 C   0  0  0  0  0  0  0  0  0  0  0  0
    4.3590  -12.5170   29.3420 O   0  0  0  0  0  0  0  0  0  0  0  0
    3.1890  -11.1900   30.7910 N   0  0  0  0  0  0  0  0  0  0  0  0
    6.6370  -11.0630   29.6960 C   0  0  0  0  0  0  0  0  0  0  0  0
    7.6820  -10.1190   29.5110 C   0  0  0  0  0  0  0  0  0  0  0  0
    7.6580   -8.8170   29.9350 C   0  0  0  0  0  0  0  0  0  0  0  0
   -1.7567   -7.4152   33.2027 H   0  0  0  0  0  0  0  0  0  0  0  0
    0.0523   -3.3178   31.8893 H   0  0  0  0  0  0  0  0  0  0  0  0
    1.6192   -3.9695   31.8246 H   0  0  0  0  0  0  0  0  0  0  0  0
    1.9537   -3.2283   34.2301 H   0  0  0  0  0  0  0  0  0  0  0  0
   -0.7151   -2.9794   34.6417 H   0  0  0  0  0  0  0  0  0  0  0  0
    1.2356   -1.1722   35.5632 H   0  0  0  0  0  0  0  0  0  0  0  0
   -1.0358   -1.3238   32.7675 H   0  0  0  0  0  0  0  0  0  0  0  0
   -1.0176    0.1656   35.0385 H   0  0  0  0  0  0  0  0  0  0  0  0
    1.3783    0.0620   34.1619 H   0  0  0  0  0  0  0  0  0  0  0  0
    0.2020   -0.5446   30.5277 H   0  0  0  0  0  0  0  0  0  0  0  0
    0.3198    4.0756   29.2334 H   0  0  0  0  0  0  0  0  0  0  0  0
    0.7020    5.5345   30.0293 H   0  0  0  0  0  0  0  0  0  0  0  0
    1.7849    4.3300   34.2662 H   0  0  0  0  0  0  0  0  0  0  0  0
    1.0975   -8.1755   34.4627 H   0  0  0  0  0  0  0  0  0  0  0  0
    4.1523   -6.6085   33.9627 H   0  0  0  0  0  0  0  0  0  0  0  0
    3.5254   -5.0687   33.4424 H   0  0  0  0  0  0  0  0  0  0  0  0
    5.8345   -5.0410   33.0953 H   0  0  0  0  0  0  0  0  0  0  0  0
    4.3747   -4.2788   31.0230 H   0  0  0  0  0  0  0  0  0  0  0  0
    7.1789   -4.5193   31.0311 H   0  0  0  0  0  0  0  0  0  0  0  0
    4.3550   -6.5161   29.8631 H   0  0  0  0  0  0  0  0  0  0  0  0
    6.6717   -5.1349   29.0044 H   0  0  0  0  0  0  0  0  0  0  0  0
    7.2966   -6.5697   30.5536 H   0  0  0  0  0  0  0  0  0  0  0  0
    5.1327   -9.2319   31.5389 H   0  0  0  0  0  0  0  0  0  0  0  0
    4.5349   -8.6968   29.9130 H   0  0  0  0  0  0  0  0  0  0  0  0
    5.0864   -9.6598   29.3203 H   0  0  0  0  0  0  0  0  0  0  0  0
    2.4269  -11.8111   30.8428 H   0  0  0  0  0  0  0  0  0  0  0  0
    3.1813  -10.3565   31.3149 H   0  0  0  0  0  0  0  0  0  0  0  0
    6.8974  -11.7121   30.5058 H   0  0  0  0  0  0  0  0  0  0  0  0
    6.5204  -11.6096   28.7835 H   0  0  0  0  0  0  0  0  0  0  0  0
    7.8358  -10.0700   28.4533 H   0  0  0  0  0  0  0  0  0  0  0  0
    8.4191  -10.5204   30.1746 H   0  0  0  0  0  0  0  0  0  0  0  0
    8.0166   -8.2007   29.1372 H   0  0  0  0  0  0  0  0  0  0  0  0
    8.2715   -8.7745   30.8106 H   0  0  0  0  0  0  0  0  0  0  0  0
  1  2  2  6  0  0  0
  1  4  1  0  0  0  0
  1  3  1  0  0  0  0
  3 45  1  0  0  0  0
  5  4  1  0  0  0  0
  5  6  1  0  0  0  0
  5 46  1  0  0  0  0
  5 47  1  0  0  0  0
  6  8  1  0  0  0  0
  6 48  1  1  0  0  0
  7 12  1  0  0  0  0
  7  6  1  0  0  0  0
  8  9  1  0  0  0  0
  8 49  1  1  0  0  0
  9 50  1  0  0  0  0
 10 11  1  0  0  0  0
 10  8  1  0  0  0  0
 10 51  1  6  0  0  0
 11 52  1  0  0  0  0
 12 10  1  0  0  0  0
 12 53  1  1  0  0  0
 13 22  1  0  0  0  0
 13 12  1  0  0  0  0
 14 13  1  0  0  0  0
 14 54  1  0  0  0  0
 15 14  2  0  0  0  0
 15 16  1  0  0  0  0
 16 22  1  0  0  0  0
 17 16  2  0  0  0  0
 17 19  1  0  0  0  0
 18 17  1  0  0  0  0
 18 55  1  0  0  0  0
 18 56  1  0  0  0  0
 19 20  2  0  0  0  0
 20 21  1  0  0  0  0
 20 57  1  0  0  0  0
 22 21  2  0  0  0  0
 23  1  1  0  0  0  0
 24 23  1  6  0  0  0
 24 26  1  0  0  0  0
 25 24  2  0  0  0  0
 26 58  1  0  0  0  0
 27 24  1  0  0  0  0
 27 28  1  0  0  0  0
 28 59  1  0  0  0  0
 28 60  1  0  0  0  0
 29 28  1  0  0  0  0
 29 61  1  1  0  0  0
 30 29  1  0  0  0  0
 31 29  1  0  0  0  0
 31 62  1  6  0  0  0
 32 31  1  0  0  0  0
 32 63  1  0  0  0  0
 33 35  1  0  0  0  0
 33 31  1  0  0  0  0
 33 64  1  6  0  0  0
 34 33  1  0  0  0  0
 34 65  1  0  0  0  0
 35 30  1  0  0  0  0
 35 66  1  6  0  0  0
 36 44  1  1  0  0  0
 36 37  1  0  0  0  0
 36 35  1  0  0  0  0
 37 67  1  0  0  0  0
 37 68  1  0  0  0  0
 38 39  1  0  0  0  0
 38 37  1  0  0  0  0
 38 69  1  6  0  0  0
 39 41  1  0  0  0  0
 40 39  2  0  0  0  0
 41 70  1  0  0  0  0
 41 71  1  0  0  0  0
 42 38  1  0  0  0  0
 42 72  1  0  0  0  0
 42 73  1  0  0  0  0
 43 42  1  0  0  0  0
 43 44  1  0  0  0  0
 43 74  1  0  0  0  0
 43 75  1  0  0  0  0
 44 76  1  0  0  0  0
 44 77  1  0  0  0  0
M  END
