1sny.pdb
 OpenBabel03151520153D

 77 81  0  0  1  0  0  0  0  0999 V2000
   19.7420   20.7990   46.9370 P   0  0  2  0  0  0  0  0  0  0  0  0
   19.1020   21.6510   47.8590 O   0  0  0  0  0  0  0  0  0  0  0  0
   21.2060   20.4130   46.9640 O   0  0  0  0  0  0  0  0  0  0  0  0
   19.5010   21.3390   45.4510 O   0  0  0  0  0  0  0  0  0  0  0  0
   18.1930   21.8470   45.0790 C   0  0  0  0  0  0  0  0  0  0  0  0
   18.4990   22.4690   43.6800 C   0  0  1  0  0  0  0  0  0  0  0  0
   17.1980   23.0240   43.1730 O   0  0  0  0  0  0  0  0  0  0  0  0
   19.4410   23.7140   43.6960 C   0  0  1  0  0  0  0  0  0  0  0  0
   20.2130   23.6640   42.4860 O   0  0  0  0  0  0  0  0  0  0  0  0
   18.4680   24.8720   43.7650 C   0  0  1  0  0  0  0  0  0  0  0  0
   18.9590   26.1420   43.3580 O   0  0  0  0  0  0  0  0  0  0  0  0
   17.3170   24.3890   42.8540 C   0  0  2  0  0  0  0  0  0  0  0  0
   16.1290   25.1790   43.1330 N   0  0  0  0  0  0  0  0  0  0  0  0
   15.3370   25.3040   44.2570 C   0  0  0  0  0  0  0  0  0  0  0  0
   14.3280   26.1560   44.1160 N   0  0  0  0  0  0  0  0  0  0  0  0
   14.4780   26.6120   42.8150 C   0  0  0  0  0  0  0  0  0  0  0  0
   13.7120   27.5400   42.0870 C   0  0  0  0  0  0  0  0  0  0  0  0
   12.6180   28.2190   42.5170 N   0  0  0  0  0  0  0  0  0  0  0  0
   14.1160   27.8010   40.7640 N   0  0  0  0  0  0  0  0  0  0  0  0
   15.2350   27.1610   40.2050 C   0  0  0  0  0  0  0  0  0  0  0  0
   16.0090   26.2460   40.9040 N   0  0  0  0  0  0  0  0  0  0  0  0
   15.5900   26.0050   42.2040 C   0  0  0  0  0  0  0  0  0  0  0  0
   18.9760   19.4180   46.9050 O   0  0  0  0  0  0  0  0  0  0  0  0
   19.2160   18.0650   46.1340 P   0  0  2  0  0  0  0  0  0  0  0  0
   19.4810   16.9730   47.0850 O   0  0  0  0  0  0  0  0  0  0  0  0
   20.2700   18.3400   45.1200 O   0  0  0  0  0  0  0  0  0  0  0  0
   17.7940   17.7990   45.4890 O   0  0  0  0  0  0  0  0  0  0  0  0
   17.6850   17.4420   44.0680 C   0  0  0  0  0  0  0  0  0  0  0  0
   16.3170   16.8240   43.8420 C   0  0  1  0  0  0  0  0  0  0  0  0
   16.2860   15.4870   44.4050 O   0  0  0  0  0  0  0  0  0  0  0  0
   15.1130   17.5700   44.5030 C   0  0  1  0  0  0  0  0  0  0  0  0
   13.9720   17.5920   43.6120 O   0  0  0  0  0  0  0  0  0  0  0  0
   14.8820   16.7670   45.7740 C   0  0  1  0  0  0  0  0  0  0  0  0
   13.5870   16.9220   46.3110 O   0  0  0  0  0  0  0  0  0  0  0  0
   15.1480   15.3810   45.3230 C   0  0  2  0  0  0  0  0  0  0  0  0
   15.6110   14.4100   46.3390 N   0  0  0  0  0  0  0  0  0  0  0  0
   16.8210   14.5200   47.0970 C   0  0  0  0  0  0  0  0  0  0  0  0
   17.1010   13.5000   48.0200 C   0  0  0  0  0  0  0  0  0  0  0  0
   18.3850   13.5660   48.8580 C   0  0  0  0  0  0  0  0  0  0  0  0
   18.5690   12.6500   49.6380 O   0  0  0  0  0  0  0  0  0  0  0  0
   19.2270   14.5560   48.7310 N   0  0  0  0  0  0  0  0  0  0  0  0
   16.1930   12.3610   48.2050 C   0  0  0  0  0  0  0  0  0  0  0  0
   15.0120   12.3090   47.4250 C   0  0  0  0  0  0  0  0  0  0  0  0
   14.7040   13.3270   46.4860 C   0  0  0  0  0  0  0  0  0  0  0  0
   19.6380   27.2180   44.3960 P   0  0  0  0  0  0  0  0  0  0  0  0
   21.0780   26.7400   44.6040 O   0  0  0  0  0  0  0  0  0  0  0  0
   19.5310   28.4800   43.6060 O   0  0  0  0  0  0  0  0  0  0  0  0
   18.8370   27.1720   45.6890 O   0  0  0  0  0  0  0  0  0  0  0  0
   18.1652   21.7378   47.6227 H   0  0  0  0  0  0  0  0  0  0  0  0
   17.4715   21.0600   45.0094 H   0  0  0  0  0  0  0  0  0  0  0  0
   17.7708   22.5333   45.7830 H   0  0  0  0  0  0  0  0  0  0  0  0
   18.9617   21.6936   43.1059 H   0  0  0  0  0  0  0  0  0  0  0  0
   20.1454   23.7810   44.4986 H   0  0  0  0  0  0  0  0  0  0  0  0
   19.6161   23.6024   41.7239 H   0  0  0  0  0  0  0  0  0  0  0  0
   18.1998   25.0745   44.7808 H   0  0  0  0  0  0  0  0  0  0  0  0
   17.4806   24.5081   41.8033 H   0  0  0  0  0  0  0  0  0  0  0  0
   15.5134   24.7817   45.1294 H   0  0  0  0  0  0  0  0  0  0  0  0
   12.1602   28.8477   41.9134 H   0  0  0  0  0  0  0  0  0  0  0  0
   12.2824   28.0827   43.4324 H   0  0  0  0  0  0  0  0  0  0  0  0
   15.4928   27.3815   39.2304 H   0  0  0  0  0  0  0  0  0  0  0  0
   19.6266   16.1475   46.5970 H   0  0  0  0  0  0  0  0  0  0  0  0
   17.7913   18.3190   43.4643 H   0  0  0  0  0  0  0  0  0  0  0  0
   18.4545   16.7488   43.7993 H   0  0  0  0  0  0  0  0  0  0  0  0
   16.1958   16.8650   42.7797 H   0  0  0  0  0  0  0  0  0  0  0  0
   15.2901   18.6038   44.7147 H   0  0  0  0  0  0  0  0  0  0  0  0
   13.7376   16.6839   43.3644 H   0  0  0  0  0  0  0  0  0  0  0  0
   15.5069   17.0840   46.5827 H   0  0  0  0  0  0  0  0  0  0  0  0
   12.9288   16.6578   45.6493 H   0  0  0  0  0  0  0  0  0  0  0  0
   14.2132   15.0197   44.9481 H   0  0  0  0  0  0  0  0  0  0  0  0
   17.4624   15.3184   46.9696 H   0  0  0  0  0  0  0  0  0  0  0  0
   19.0433   15.2792   48.0887 H   0  0  0  0  0  0  0  0  0  0  0  0
   20.0455   14.5792   49.2775 H   0  0  0  0  0  0  0  0  0  0  0  0
   16.4100   11.6169   48.8864 H   0  0  0  0  0  0  0  0  0  0  0  0
   14.3629   11.5153   47.5419 H   0  0  0  0  0  0  0  0  0  0  0  0
   14.6150   12.8573   45.5287 H   0  0  0  0  0  0  0  0  0  0  0  0
   21.5576   26.7826   43.7619 H   0  0  0  0  0  0  0  0  0  0  0  0
   17.9329   27.4805   45.5204 H   0  0  0  0  0  0  0  0  0  0  0  0
  1  4  1  6  0  0  0
  1  3  2  0  0  0  0
  1  2  1  0  0  0  0
  2 49  1  0  0  0  0
  5  4  1  0  0  0  0
  5 50  1  0  0  0  0
  5 51  1  0  0  0  0
  6  8  1  0  0  0  0
  6  5  1  0  0  0  0
  6 52  1  6  0  0  0
  7  6  1  0  0  0  0
  8 10  1  0  0  0  0
  8 53  1  1  0  0  0
  9  8  1  0  0  0  0
  9 54  1  0  0  0  0
 10 55  1  1  0  0  0
 11 10  1  0  0  0  0
 11 45  1  0  0  0  0
 12 13  1  0  0  0  0
 12  7  1  0  0  0  0
 12 10  1  0  0  0  0
 12 56  1  6  0  0  0
 13 14  1  0  0  0  0
 14 57  1  0  0  0  0
 15 14  2  0  0  0  0
 16 15  1  0  0  0  0
 17 18  1  0  0  0  0
 17 16  2  0  0  0  0
 18 58  1  0  0  0  0
 18 59  1  0  0  0  0
 19 17  1  0  0  0  0
 20 19  2  0  0  0  0
 20 21  1  0  0  0  0
 20 60  1  0  0  0  0
 21 22  2  0  0  0  0
 22 16  1  0  0  0  0
 22 13  1  0  0  0  0
 23  1  1  0  0  0  0
 24 26  2  6  0  0  0
 24 23  1  0  0  0  0
 24 25  1  0  0  0  0
 25 61  1  0  0  0  0
 27 24  1  0  0  0  0
 28 27  1  0  0  0  0
 28 62  1  0  0  0  0
 28 63  1  0  0  0  0
 29 28  1  0  0  0  0
 29 30  1  0  0  0  0
 29 31  1  0  0  0  0
 29 64  1  6  0  0  0
 30 35  1  0  0  0  0
 31 33  1  0  0  0  0
 31 65  1  1  0  0  0
 32 31  1  0  0  0  0
 32 66  1  0  0  0  0
 33 34  1  0  0  0  0
 33 67  1  1  0  0  0
 34 68  1  0  0  0  0
 35 33  1  0  0  0  0
 35 36  1  0  0  0  0
 35 69  1  6  0  0  0
 36 44  1  0  0  0  0
 36 37  1  0  0  0  0
 37 38  2  0  0  0  0
 37 70  1  0  0  0  0
 38 42  1  0  0  0  0
 38 39  1  0  0  0  0
 39 40  2  0  0  0  0
 41 39  1  0  0  0  0
 41 71  1  0  0  0  0
 41 72  1  0  0  0  0
 42 73  1  0  0  0  0
 43 42  2  0  0  0  0
 43 74  1  0  0  0  0
 44 43  1  0  0  0  0
 44 75  1  0  0  0  0
 45 46  1  0  0  0  0
 45 48  1  0  0  0  0
 46 76  1  0  0  0  0
 47 45  2  0  0  0  0
 48 77  1  0  0  0  0
M  END
