2ag8.pdb
 OpenBabel03151520153D

 77 81  0  0  1  0  0  0  0  0999 V2000
   18.5440   23.2050   15.5490 P   0  0  2  0  0  0  0  0  0  0  0  0
   17.5240   22.5970   14.6450 O   0  0  0  0  0  0  0  0  0  0  0  0
   19.2650   22.1340   16.3120 O   0  0  0  0  0  0  0  0  0  0  0  0
   17.7530   24.2660   16.5080 O   0  0  0  0  0  0  0  0  0  0  0  0
   16.5540   24.9180   16.1180 C   0  0  0  0  0  0  0  0  0  0  0  0
   15.4330   24.5940   17.1090 C   0  0  1  0  0  0  0  0  0  0  0  0
   14.3520   25.5130   17.0720 O   0  0  0  0  0  0  0  0  0  0  0  0
   14.7910   23.2330   16.8600 C   0  0  1  0  0  0  0  0  0  0  0  0
   15.4060   22.2590   17.6750 O   0  0  0  0  0  0  0  0  0  0  0  0
   13.3100   23.4210   17.1750 C   0  0  1  0  0  0  0  0  0  0  0  0
   12.8700   22.5680   18.2030 O   0  0  0  0  0  0  0  0  0  0  0  0
   13.2290   24.8600   17.6520 C   0  0  2  0  0  0  0  0  0  0  0  0
   11.9450   25.5280   17.3450 N   0  0  0  0  0  0  0  0  0  0  0  0
   11.4130   25.7730   16.1070 C   0  0  0  0  0  0  0  0  0  0  0  0
   10.2370   26.4170   16.2500 N   0  0  0  0  0  0  0  0  0  0  0  0
   10.0060   26.5880   17.5690 C   0  0  0  0  0  0  0  0  0  0  0  0
    8.9590   27.2090   18.2480 C   0  0  0  0  0  0  0  0  0  0  0  0
    8.4560   28.2860   17.6380 N   0  0  0  0  0  0  0  0  0  0  0  0
    8.9790   27.2250   19.6390 N   0  0  0  0  0  0  0  0  0  0  0  0
   10.0500   26.6810   20.3200 C   0  0  0  0  0  0  0  0  0  0  0  0
   11.0930   26.0880   19.6270 N   0  0  0  0  0  0  0  0  0  0  0  0
   11.0720   26.0390   18.2720 C   0  0  0  0  0  0  0  0  0  0  0  0
   19.6160   24.1190   14.7130 O   0  0  0  0  0  0  0  0  0  0  0  0
   21.0250   24.8110   15.2080 P   0  0  2  0  0  0  0  0  0  0  0  0
   22.1540   24.1000   14.5560 O   0  0  0  0  0  0  0  0  0  0  0  0
   21.1100   25.0850   16.6680 O   0  0  0  0  0  0  0  0  0  0  0  0
   20.8520   26.2770   14.5820 O   0  0  0  0  0  0  0  0  0  0  0  0
   19.7190   27.0580   14.9190 C   0  0  0  0  0  0  0  0  0  0  0  0
   20.0400   28.5170   14.6250 C   0  0  1  0  0  0  0  0  0  0  0  0
   21.4310   28.7470   14.8190 O   0  0  0  0  0  0  0  0  0  0  0  0
   19.7060   28.8880   13.1700 C   0  0  1  0  0  0  0  0  0  0  0  0
   18.8430   30.0010   13.1560 O   0  0  0  0  0  0  0  0  0  0  0  0
   21.0470   29.1840   12.5000 C   0  0  1  0  0  0  0  0  0  0  0  0
   20.9690   30.1980   11.5180 O   0  0  0  0  0  0  0  0  0  0  0  0
   21.8520   29.5730   13.7430 C   0  0  2  0  0  0  0  0  0  0  0  0
   23.3200   29.7410   13.6330 N   0  0  0  0  0  0  0  0  0  0  0  0
   24.2820   28.7410   13.5990 C   0  0  0  0  0  0  0  0  0  0  0  0
   25.6460   29.1160   13.5080 C   0  0  1  0  0  0  0  0  0  0  0  0
   26.6840   28.3500   12.7120 C   0  0  0  0  0  0  0  0  0  0  0  0
   27.7050   29.1270   12.0780 O   0  0  0  0  0  0  0  0  0  0  0  0
   26.6530   27.0080   12.6240 N   0  0  0  0  0  0  0  0  0  0  0  0
   25.9490   30.4710   13.4940 C   0  0  0  0  0  0  0  0  0  0  0  0
   24.9700   31.4450   13.5160 C   0  0  0  0  0  0  0  0  0  0  0  0
   23.6640   31.0510   13.5940 C   0  0  0  0  0  0  0  0  0  0  0  0
   11.8110   21.3790   17.9390 P   0  0  0  0  0  0  0  0  0  0  0  0
   12.5690   20.0690   17.7750 O   0  0  0  0  0  0  0  0  0  0  0  0
   11.0060   21.7600   16.7180 O   0  0  0  0  0  0  0  0  0  0  0  0
   10.8880   21.2900   19.1340 O   0  0  0  0  0  0  0  0  0  0  0  0
   19.7123   21.5391   15.6899 H   0  0  0  0  0  0  0  0  0  0  0  0
   16.2709   24.5839   15.1417 H   0  0  0  0  0  0  0  0  0  0  0  0
   16.7176   25.9754   16.1076 H   0  0  0  0  0  0  0  0  0  0  0  0
   15.9398   24.6313   18.0506 H   0  0  0  0  0  0  0  0  0  0  0  0
   14.9119   22.8877   15.8545 H   0  0  0  0  0  0  0  0  0  0  0  0
   15.3274   22.5199   18.6059 H   0  0  0  0  0  0  0  0  0  0  0  0
   12.6979   23.2001   16.3257 H   0  0  0  0  0  0  0  0  0  0  0  0
   13.2579   24.9030   18.7207 H   0  0  0  0  0  0  0  0  0  0  0  0
   11.8437   25.5070   15.2077 H   0  0  0  0  0  0  0  0  0  0  0  0
    8.4199   28.3229   16.6549 H   0  0  0  0  0  0  0  0  0  0  0  0
    8.1215   29.0427   18.1717 H   0  0  0  0  0  0  0  0  0  0  0  0
   10.0737   26.7163   21.3511 H   0  0  0  0  0  0  0  0  0  0  0  0
   21.9675   25.4903   16.8715 H   0  0  0  0  0  0  0  0  0  0  0  0
   19.4938   26.9393   15.9583 H   0  0  0  0  0  0  0  0  0  0  0  0
   18.8712   26.7443   14.3465 H   0  0  0  0  0  0  0  0  0  0  0  0
   19.4493   29.1142   15.2878 H   0  0  0  0  0  0  0  0  0  0  0  0
   19.1982   28.1055   12.6459 H   0  0  0  0  0  0  0  0  0  0  0  0
   19.2622   30.7411   13.6224 H   0  0  0  0  0  0  0  0  0  0  0  0
   21.4663   28.3830   11.9276 H   0  0  0  0  0  0  0  0  0  0  0  0
   20.5960   31.0019   11.9123 H   0  0  0  0  0  0  0  0  0  0  0  0
   21.6123   30.5997   13.9256 H   0  0  0  0  0  0  0  0  0  0  0  0
   24.1717   28.1663   14.4948 H   0  0  0  0  0  0  0  0  0  0  0  0
   27.3385   26.5330   12.1008 H   0  0  0  0  0  0  0  0  0  0  0  0
   25.9448   26.5008   13.0828 H   0  0  0  0  0  0  0  0  0  0  0  0
   26.5184   30.6403   12.6040 H   0  0  0  0  0  0  0  0  0  0  0  0
   25.2188   32.4457   13.4745 H   0  0  0  0  0  0  0  0  0  0  0  0
   22.9223   31.7679   13.6239 H   0  0  0  0  0  0  0  0  0  0  0  0
   13.1593   20.1309   17.0078 H   0  0  0  0  0  0  0  0  0  0  0  0
   10.2435   20.5791   18.9925 H   0  0  0  0  0  0  0  0  0  0  0  0
  1  2  2  6  0  0  0
  1  3  1  0  0  0  0
  1  4  1  0  0  0  0
  3 49  1  0  0  0  0
  5  4  1  0  0  0  0
  5  6  1  0  0  0  0
  5 50  1  0  0  0  0
  5 51  1  0  0  0  0
  6 52  1  1  0  0  0
  7  6  1  0  0  0  0
  7 12  1  0  0  0  0
  8  6  1  0  0  0  0
  8 10  1  0  0  0  0
  8  9  1  0  0  0  0
  8 53  1  6  0  0  0
  9 54  1  0  0  0  0
 10 12  1  0  0  0  0
 10 11  1  0  0  0  0
 10 55  1  6  0  0  0
 12 56  1  1  0  0  0
 13 12  1  0  0  0  0
 13 22  1  0  0  0  0
 14 15  2  0  0  0  0
 14 13  1  0  0  0  0
 14 57  1  0  0  0  0
 15 16  1  0  0  0  0
 16 17  2  0  0  0  0
 16 22  1  0  0  0  0
 17 19  1  0  0  0  0
 18 17  1  0  0  0  0
 18 58  1  0  0  0  0
 18 59  1  0  0  0  0
 19 20  2  0  0  0  0
 20 60  1  0  0  0  0
 21 20  1  0  0  0  0
 22 21  2  0  0  0  0
 23 24  1  0  0  0  0
 23  1  1  0  0  0  0
 24 25  2  6  0  0  0
 24 26  1  0  0  0  0
 26 61  1  0  0  0  0
 27 28  1  0  0  0  0
 27 24  1  0  0  0  0
 28 62  1  0  0  0  0
 28 63  1  0  0  0  0
 29 30  1  0  0  0  0
 29 28  1  0  0  0  0
 29 64  1  1  0  0  0
 31 29  1  0  0  0  0
 31 65  1  6  0  0  0
 32 31  1  0  0  0  0
 32 66  1  0  0  0  0
 33 31  1  0  0  0  0
 33 35  1  0  0  0  0
 33 67  1  6  0  0  0
 34 33  1  0  0  0  0
 34 68  1  0  0  0  0
 35 30  1  0  0  0  0
 35 69  1  1  0  0  0
 36 35  1  0  0  0  0
 37 36  1  0  0  0  0
 37 70  1  0  0  0  0
 38 39  1  6  0  0  0
 38 37  1  0  0  0  0
 40 39  2  0  0  0  0
 41 39  1  0  0  0  0
 41 71  1  0  0  0  0
 41 72  1  0  0  0  0
 42 38  1  0  0  0  0
 42 43  1  0  0  0  0
 42 73  1  0  0  0  0
 43 44  2  0  0  0  0
 43 74  1  0  0  0  0
 44 36  1  0  0  0  0
 44 75  1  0  0  0  0
 45 11  1  0  0  0  0
 45 48  1  0  0  0  0
 46 45  1  0  0  0  0
 46 76  1  0  0  0  0
 47 45  2  0  0  0  0
 48 77  1  0  0  0  0
M  END
