2g5c.pdb
 OpenBabel03151520153D

 72 76  0  0  1  0  0  0  0  0999 V2000
   43.2210   47.0030   57.3980 P   0  0  1  0  0  0  0  0  0  0  0  0
   44.3070   46.7090   56.4500 O   0  0  0  0  0  0  0  0  0  0  0  0
   43.2880   46.2930   58.7330 O   0  0  0  0  0  0  0  0  0  0  0  0
   43.1970   48.5850   57.5780 O   0  0  0  0  0  0  0  0  0  0  0  0
   42.2680   49.1760   58.4400 C   0  0  0  0  0  0  0  0  0  0  0  0
   42.8450   50.4770   58.9680 C   0  0  1  0  0  0  0  0  0  0  0  0
   41.8690   50.9730   59.8460 O   0  0  0  0  0  0  0  0  0  0  0  0
   44.1180   50.2780   59.8220 C   0  0  1  0  0  0  0  0  0  0  0  0
   45.2370   50.9780   59.2930 O   0  0  0  0  0  0  0  0  0  0  0  0
   43.6760   50.7420   61.2120 C   0  0  1  0  0  0  0  0  0  0  0  0
   44.6810   51.3060   62.0280 O   0  0  0  0  0  0  0  0  0  0  0  0
   42.5690   51.6910   60.8180 C   0  0  2  0  0  0  0  0  0  0  0  0
   41.5850   52.1120   61.8310 N   0  0  0  0  0  0  0  0  0  0  0  0
   40.9500   51.3660   62.7960 C   0  0  0  0  0  0  0  0  0  0  0  0
   40.1310   52.1720   63.4930 N   0  0  0  0  0  0  0  0  0  0  0  0
   40.2270   53.4240   62.9920 C   0  0  0  0  0  0  0  0  0  0  0  0
   39.6280   54.6550   63.3000 C   0  0  0  0  0  0  0  0  0  0  0  0
   38.7480   54.7570   64.2800 N   0  0  0  0  0  0  0  0  0  0  0  0
   39.9630   55.7910   62.5610 N   0  0  0  0  0  0  0  0  0  0  0  0
   40.8890   55.7140   61.5200 C   0  0  0  0  0  0  0  0  0  0  0  0
   41.4870   54.5010   61.2080 N   0  0  0  0  0  0  0  0  0  0  0  0
   41.1510   53.3870   61.9390 C   0  0  0  0  0  0  0  0  0  0  0  0
   41.7540   46.6890   56.7460 O   0  0  0  0  0  0  0  0  0  0  0  0
   41.3980   46.6830   55.1790 P   0  0  1  0  0  0  0  0  0  0  0  0
   42.2100   47.7180   54.5110 O   0  0  0  0  0  0  0  0  0  0  0  0
   41.5660   45.2900   54.6820 O   0  0  0  0  0  0  0  0  0  0  0  0
   39.8280   47.0310   55.0370 O   0  0  0  0  0  0  0  0  0  0  0  0
   39.3120   48.2890   55.4260 C   0  0  0  0  0  0  0  0  0  0  0  0
   37.8120   48.4480   55.0900 C   0  0  1  0  0  0  0  0  0  0  0  0
   37.5600   47.9830   53.7740 O   0  0  0  0  0  0  0  0  0  0  0  0
   36.7840   47.7460   55.9880 C   0  0  1  0  0  0  0  0  0  0  0  0
   35.7790   48.6940   56.3550 O   0  0  0  0  0  0  0  0  0  0  0  0
   36.2010   46.6150   55.1550 C   0  0  1  0  0  0  0  0  0  0  0  0
   34.8280   46.3630   55.4400 O   0  0  0  0  0  0  0  0  0  0  0  0
   36.4690   47.0860   53.7270 C   0  0  2  0  0  0  0  0  0  0  0  0
   36.7800   46.0280   52.7160 N   0  0  0  0  0  0  0  0  0  0  0  0
   37.8040   45.1260   52.9970 C   0  0  0  0  0  0  0  0  0  0  0  0
   38.1220   44.1220   52.0730 C   0  0  0  0  0  0  0  0  0  0  0  0
   39.2290   43.1600   52.3910 C   0  0  0  0  0  0  0  0  0  0  0  0
   39.5140   42.1920   51.4680 O   0  0  0  0  0  0  0  0  0  0  0  0
   39.9350   43.2020   53.5070 N   0  0  0  0  0  0  0  0  0  0  0  0
   37.3860   44.0450   50.8580 C   0  0  0  0  0  0  0  0  0  0  0  0
   36.3490   44.9660   50.5840 C   0  0  0  0  0  0  0  0  0  0  0  0
   36.0540   45.9610   51.5310 C   0  0  0  0  0  0  0  0  0  0  0  0
   43.3012   45.3339   58.5888 H   0  0  0  0  0  0  0  0  0  0  0  0
   42.0652   48.5154   59.2569 H   0  0  0  0  0  0  0  0  0  0  0  0
   41.3574   49.3709   57.9129 H   0  0  0  0  0  0  0  0  0  0  0  0
   43.0962   51.1072   58.1406 H   0  0  0  0  0  0  0  0  0  0  0  0
   44.4733   49.2689   59.8399 H   0  0  0  0  0  0  0  0  0  0  0  0
   45.0270   51.9229   59.2299 H   0  0  0  0  0  0  0  0  0  0  0  0
   43.3817   49.9449   61.8623 H   0  0  0  0  0  0  0  0  0  0  0  0
   45.0718   52.0710   61.5775 H   0  0  0  0  0  0  0  0  0  0  0  0
   43.0384   52.6134   60.5464 H   0  0  0  0  0  0  0  0  0  0  0  0
   41.0806   50.3552   62.9581 H   0  0  0  0  0  0  0  0  0  0  0  0
   38.3367   55.6280   64.4836 H   0  0  0  0  0  0  0  0  0  0  0  0
   38.5035   53.9620   64.8068 H   0  0  0  0  0  0  0  0  0  0  0  0
   41.1297   56.5606   60.9811 H   0  0  0  0  0  0  0  0  0  0  0  0
   41.3569   45.2570   53.7354 H   0  0  0  0  0  0  0  0  0  0  0  0
   39.8596   49.0554   54.9184 H   0  0  0  0  0  0  0  0  0  0  0  0
   39.4153   48.3663   56.4882 H   0  0  0  0  0  0  0  0  0  0  0  0
   37.6664   49.4976   55.2382 H   0  0  0  0  0  0  0  0  0  0  0  0
   37.2124   47.3585   56.8887 H   0  0  0  0  0  0  0  0  0  0  0  0
   35.3735   49.0616   55.5542 H   0  0  0  0  0  0  0  0  0  0  0  0
   36.6420   45.6617   55.3589 H   0  0  0  0  0  0  0  0  0  0  0  0
   34.3129   47.1710   55.2891 H   0  0  0  0  0  0  0  0  0  0  0  0
   35.5502   47.5210   53.3930 H   0  0  0  0  0  0  0  0  0  0  0  0
   38.3271   45.1973   53.8838 H   0  0  0  0  0  0  0  0  0  0  0  0
   40.6506   42.5438   53.6619 H   0  0  0  0  0  0  0  0  0  0  0  0
   39.7455   43.8915   54.1837 H   0  0  0  0  0  0  0  0  0  0  0  0
   38.0965   44.1391   50.0635 H   0  0  0  0  0  0  0  0  0  0  0  0
   35.8168   44.9083   49.7017 H   0  0  0  0  0  0  0  0  0  0  0  0
   35.2998   46.6413   51.3479 H   0  0  0  0  0  0  0  0  0  0  0  0
  1  2  2  6  0  0  0
  1  4  1  0  0  0  0
  1  3  1  0  0  0  0
  3 45  1  0  0  0  0
  4  5  1  0  0  0  0
  5  6  1  0  0  0  0
  5 46  1  0  0  0  0
  5 47  1  0  0  0  0
  6  8  1  0  0  0  0
  6  7  1  0  0  0  0
  6 48  1  6  0  0  0
  7 12  1  0  0  0  0
  8 10  1  0  0  0  0
  8 49  1  1  0  0  0
  9  8  1  0  0  0  0
  9 50  1  0  0  0  0
 10 11  1  0  0  0  0
 10 51  1  1  0  0  0
 11 52  1  0  0  0  0
 12 10  1  0  0  0  0
 12 13  1  0  0  0  0
 12 53  1  6  0  0  0
 13 22  1  0  0  0  0
 13 14  1  0  0  0  0
 14 15  2  0  0  0  0
 14 54  1  0  0  0  0
 16 17  1  0  0  0  0
 16 15  1  0  0  0  0
 17 18  1  0  0  0  0
 18 55  1  0  0  0  0
 18 56  1  0  0  0  0
 19 17  2  0  0  0  0
 20 19  1  0  0  0  0
 20 57  1  0  0  0  0
 21 20  2  0  0  0  0
 21 22  1  0  0  0  0
 22 16  2  0  0  0  0
 23  1  1  0  0  0  0
 24 25  2  6  0  0  0
 24 23  1  0  0  0  0
 26 24  1  0  0  0  0
 26 58  1  0  0  0  0
 27 24  1  0  0  0  0
 27 28  1  0  0  0  0
 28 59  1  0  0  0  0
 28 60  1  0  0  0  0
 29 28  1  0  0  0  0
 29 31  1  0  0  0  0
 29 61  1  1  0  0  0
 30 29  1  0  0  0  0
 31 32  1  0  0  0  0
 31 62  1  1  0  0  0
 32 63  1  0  0  0  0
 33 34  1  0  0  0  0
 33 31  1  0  0  0  0
 33 64  1  1  0  0  0
 34 65  1  0  0  0  0
 35 30  1  0  0  0  0
 35 33  1  0  0  0  0
 35 66  1  6  0  0  0
 36 37  1  0  0  0  0
 36 35  1  0  0  0  0
 37 67  1  0  0  0  0
 38 39  1  0  0  0  0
 38 37  2  0  0  0  0
 39 41  1  0  0  0  0
 40 39  2  0  0  0  0
 41 68  1  0  0  0  0
 41 69  1  0  0  0  0
 42 38  1  0  0  0  0
 42 70  1  0  0  0  0
 43 42  1  0  0  0  0
 43 44  2  0  0  0  0
 43 71  1  0  0  0  0
 44 36  1  0  0  0  0
 44 72  1  0  0  0  0
M  END
