3ajr.pdb
 OpenBabel03151520153D

 72 76  0  0  1  0  0  0  0  0999 V2000
   -9.1590    7.3450  -28.1360 P   0  0  1  0  0  0  0  0  0  0  0  0
  -10.5850    7.1700  -28.4350 O   0  0  0  0  0  0  0  0  0  0  0  0
   -8.1980    7.2320  -29.3110 O   0  0  0  0  0  0  0  0  0  0  0  0
   -8.9950    8.7460  -27.3900 O   0  0  0  0  0  0  0  0  0  0  0  0
   -7.7180    9.2030  -27.0210 C   0  0  0  0  0  0  0  0  0  0  0  0
   -7.8290   10.6140  -26.4310 C   0  0  1  0  0  0  0  0  0  0  0  0
   -6.4940   11.0300  -26.1550 O   0  0  0  0  0  0  0  0  0  0  0  0
   -8.4150   11.5760  -27.4660 C   0  0  1  0  0  0  0  0  0  0  0  0
   -9.6230   12.1790  -27.0140 O   0  0  0  0  0  0  0  0  0  0  0  0
   -7.2590   12.5470  -27.7020 C   0  0  1  0  0  0  0  0  0  0  0  0
   -7.6120   13.8700  -28.0560 O   0  0  0  0  0  0  0  0  0  0  0  0
   -6.5430   12.4160  -26.3820 C   0  0  2  0  0  0  0  0  0  0  0  0
   -5.1840   12.9780  -26.2790 N   0  0  0  0  0  0  0  0  0  0  0  0
   -4.1200   12.8360  -27.1380 C   0  0  0  0  0  0  0  0  0  0  0  0
   -3.0770   13.5310  -26.6520 N   0  0  0  0  0  0  0  0  0  0  0  0
   -3.4510   14.1180  -25.4930 C   0  0  0  0  0  0  0  0  0  0  0  0
   -2.8080   14.9480  -24.5610 C   0  0  0  0  0  0  0  0  0  0  0  0
   -1.5460   15.3190  -24.7400 N   0  0  0  0  0  0  0  0  0  0  0  0
   -3.5090   15.3910  -23.4300 N   0  0  0  0  0  0  0  0  0  0  0  0
   -4.8360   15.0120  -23.2320 C   0  0  0  0  0  0  0  0  0  0  0  0
   -5.4820   14.1960  -24.1500 N   0  0  0  0  0  0  0  0  0  0  0  0
   -4.7880   13.7660  -25.2520 C   0  0  0  0  0  0  0  0  0  0  0  0
   -8.6880    6.2780  -27.0230 O   0  0  0  0  0  0  0  0  0  0  0  0
   -9.6010    5.3090  -26.1080 P   0  0  1  0  0  0  0  0  0  0  0  0
  -10.7010    6.0660  -25.4770 O   0  0  0  0  0  0  0  0  0  0  0  0
   -9.9690    4.1590  -26.9630 O   0  0  0  0  0  0  0  0  0  0  0  0
   -8.5250    4.8030  -25.0340 O   0  0  0  0  0  0  0  0  0  0  0  0
   -8.0100    5.6920  -24.0710 C   0  0  0  0  0  0  0  0  0  0  0  0
   -6.9970    4.9870  -23.1650 C   0  0  1  0  0  0  0  0  0  0  0  0
   -7.3780    3.6200  -22.9500 O   0  0  0  0  0  0  0  0  0  0  0  0
   -5.5920    4.9480  -23.7570 C   0  0  1  0  0  0  0  0  0  0  0  0
   -4.6120    5.1880  -22.7550 O   0  0  0  0  0  0  0  0  0  0  0  0
   -5.5030    3.5770  -24.3570 C   0  0  1  0  0  0  0  0  0  0  0  0
   -4.1870    3.1390  -24.5770 O   0  0  0  0  0  0  0  0  0  0  0  0
   -6.3180    2.7620  -23.3580 C   0  0  2  0  0  0  0  0  0  0  0  0
   -6.8690    1.4830  -23.9060 N   0  0  0  0  0  0  0  0  0  0  0  0
   -7.9850    1.5330  -24.7450 C   0  0  0  0  0  0  0  0  0  0  0  0
   -8.5090    0.3430  -25.2760 C   0  0  0  0  0  0  0  0  0  0  0  0
   -9.7090    0.3940  -26.1810 C   0  0  0  0  0  0  0  0  0  0  0  0
  -10.1840   -0.7930  -26.6820 O   0  0  0  0  0  0  0  0  0  0  0  0
  -10.3230    1.5130  -26.5190 N   0  0  0  0  0  0  0  0  0  0  0  0
   -7.8850   -0.8860  -24.9440 C   0  0  0  0  0  0  0  0  0  0  0  0
   -6.7560   -0.9140  -24.0970 C   0  0  0  0  0  0  0  0  0  0  0  0
   -6.2570    0.2840  -23.5840 C   0  0  0  0  0  0  0  0  0  0  0  0
  -10.8566    7.8166  -29.1051 H   0  0  0  0  0  0  0  0  0  0  0  0
   -7.0848    9.2261  -27.8832 H   0  0  0  0  0  0  0  0  0  0  0  0
   -7.3014    8.5429  -26.2892 H   0  0  0  0  0  0  0  0  0  0  0  0
   -8.4550   10.6134  -25.5632 H   0  0  0  0  0  0  0  0  0  0  0  0
   -8.7306   11.1099  -28.3760 H   0  0  0  0  0  0  0  0  0  0  0  0
   -9.4599   12.6421  -26.1774 H   0  0  0  0  0  0  0  0  0  0  0  0
   -6.6715   12.3113  -28.5646 H   0  0  0  0  0  0  0  0  0  0  0  0
   -8.1674   14.2538  -27.3595 H   0  0  0  0  0  0  0  0  0  0  0  0
   -7.0817   12.9954  -25.6615 H   0  0  0  0  0  0  0  0  0  0  0  0
   -4.1217   12.2866  -28.0116 H   0  0  0  0  0  0  0  0  0  0  0  0
   -1.0499   15.0105  -25.5324 H   0  0  0  0  0  0  0  0  0  0  0  0
   -1.1062   15.9026  -24.0803 H   0  0  0  0  0  0  0  0  0  0  0  0
   -5.3424   15.3412  -22.3952 H   0  0  0  0  0  0  0  0  0  0  0  0
  -11.3284    6.3534  -26.1587 H   0  0  0  0  0  0  0  0  0  0  0  0
   -8.8147    6.0656  -23.4729 H   0  0  0  0  0  0  0  0  0  0  0  0
   -7.5163    6.4957  -24.5762 H   0  0  0  0  0  0  0  0  0  0  0  0
   -6.9906    5.5530  -22.2570 H   0  0  0  0  0  0  0  0  0  0  0  0
   -5.4098    5.7079  -24.4879 H   0  0  0  0  0  0  0  0  0  0  0  0
   -4.7084    4.5339  -22.0452 H   0  0  0  0  0  0  0  0  0  0  0  0
   -5.8840    3.5013  -25.3540 H   0  0  0  0  0  0  0  0  0  0  0  0
   -3.6977    3.1517  -23.7395 H   0  0  0  0  0  0  0  0  0  0  0  0
   -5.6842    2.4525  -22.5533 H   0  0  0  0  0  0  0  0  0  0  0  0
   -8.4220    2.4396  -24.9734 H   0  0  0  0  0  0  0  0  0  0  0  0
  -11.1053    1.4843  -27.1161 H   0  0  0  0  0  0  0  0  0  0  0  0
   -9.9985    2.3761  -26.1740 H   0  0  0  0  0  0  0  0  0  0  0  0
   -7.5859   -1.3364  -25.8673 H   0  0  0  0  0  0  0  0  0  0  0  0
   -6.3044   -1.8111  -23.8597 H   0  0  0  0  0  0  0  0  0  0  0  0
   -5.4316    0.2760  -22.9645 H   0  0  0  0  0  0  0  0  0  0  0  0
  1  3  2  6  0  0  0
  1  4  1  0  0  0  0
  1 23  1  0  0  0  0
  2  1  1  0  0  0  0
  2 45  1  0  0  0  0
  4  5  1  0  0  0  0
  5  6  1  0  0  0  0
  5 46  1  0  0  0  0
  5 47  1  0  0  0  0
  6  7  1  0  0  0  0
  6 48  1  1  0  0  0
  8  9  1  0  0  0  0
  8  6  1  0  0  0  0
  8 49  1  6  0  0  0
  9 50  1  0  0  0  0
 10  8  1  0  0  0  0
 10 12  1  0  0  0  0
 10 51  1  6  0  0  0
 11 10  1  0  0  0  0
 11 52  1  0  0  0  0
 12 13  1  0  0  0  0
 12  7  1  0  0  0  0
 12 53  1  1  0  0  0
 13 22  1  0  0  0  0
 14 15  2  0  0  0  0
 14 13  1  0  0  0  0
 14 54  1  0  0  0  0
 15 16  1  0  0  0  0
 16 22  2  0  0  0  0
 16 17  1  0  0  0  0
 17 19  2  0  0  0  0
 18 17  1  0  0  0  0
 18 55  1  0  0  0  0
 18 56  1  0  0  0  0
 19 20  1  0  0  0  0
 20 57  1  0  0  0  0
 21 20  2  0  0  0  0
 22 21  1  0  0  0  0
 24 23  1  6  0  0  0
 24 25  1  0  0  0  0
 24 27  1  0  0  0  0
 25 58  1  0  0  0  0
 26 24  2  0  0  0  0
 27 28  1  0  0  0  0
 28 29  1  0  0  0  0
 28 59  1  0  0  0  0
 28 60  1  0  0  0  0
 29 30  1  0  0  0  0
 29 61  1  1  0  0  0
 31 29  1  0  0  0  0
 31 32  1  0  0  0  0
 31 62  1  6  0  0  0
 32 63  1  0  0  0  0
 33 31  1  0  0  0  0
 33 35  1  0  0  0  0
 33 64  1  6  0  0  0
 34 33  1  0  0  0  0
 34 65  1  0  0  0  0
 35 30  1  0  0  0  0
 35 66  1  1  0  0  0
 36 44  1  0  0  0  0
 36 35  1  0  0  0  0
 37 36  1  0  0  0  0
 37 67  1  0  0  0  0
 38 42  1  0  0  0  0
 38 37  2  0  0  0  0
 39 38  1  0  0  0  0
 40 39  2  0  0  0  0
 41 39  1  0  0  0  0
 41 68  1  0  0  0  0
 41 69  1  0  0  0  0
 42 43  1  0  0  0  0
 42 70  1  0  0  0  0
 43 44  2  0  0  0  0
 43 71  1  0  0  0  0
 44 72  1  0  0  0  0
M  END
