@<TRIPOS>MOLECULE
1lc3.pdb OpenBabel03151520153D
    72     76      1
SMALL
USER_CHARGES


@<TRIPOS>ATOM
       1  P1        32.6370   16.8400   62.2080 Any       1 RSD         1.5749
       2  O1        32.9070   15.4820   61.6540 Any       1 RSD        -0.6851
       3  O2        33.1550   16.9980   63.6430 Any       1 RSD        -0.5851
       4  O3        31.1380   17.1680   62.1270 Any       1 RSD        -0.5851
       5  C1        30.0770   16.4620   62.8960 Any       1 RSD        -0.1051
       6  C2        28.7210   16.8630   62.4580 Any       1 RSD        -0.0151
       7  O4        28.5980   18.3260   62.3520 Any       1 RSD        -0.5851
       8  C3        28.1990   16.3360   61.0570 Any       1 RSD        -0.0151
       9  O5        26.7980   15.8990   61.1930 Any       1 RSD        -0.5851
      10  C4        28.3650   17.4800   60.1060 Any       1 RSD        -0.0151
      11  O6        27.6420   17.4480   58.9360 Any       1 RSD        -0.5851
      12  C5        28.0750   18.6380   61.1180 Any       1 RSD        -0.0151
      13  N1        28.6670   19.8900   60.7570 Any       1 RSD        -0.4551
      14  C6        29.9840   20.2490   60.5500 Any       1 RSD        -0.0401
      15  N2        30.1770   21.5080   60.2260 Any       1 RSD        -0.4551
      16  C7        28.9280   22.0780   60.2000 Any       1 RSD        -0.0401
      17  C8        28.4760   23.5040   59.8950 Any       1 RSD        -0.0401
      18  N3        29.2590   24.5080   59.5820 Any       1 RSD        -0.3951
      19  N4        27.0600   23.6690   59.9830 Any       1 RSD        -0.4551
      20  C9        26.1730   22.7230   60.2910 Any       1 RSD        -0.0401
      21  N5        26.5700   21.3770   60.5820 Any       1 RSD        -0.4551
      22  C10       27.9800   21.0950   60.5240 Any       1 RSD        -0.0401
      23  O7        33.4580   17.7760   61.2570 Any       1 RSD        -0.5851
      24  P2        33.2590   18.2940   59.7270 Any       1 RSD         1.5749
      25  O8        31.9850   17.9460   59.1640 Any       1 RSD        -0.5851
      26  O9        34.4490   17.6510   59.1480 Any       1 RSD        -0.6851
      27  O10       33.6370   19.7990   59.5330 Any       1 RSD        -0.5851
      28  C11       34.4550   20.5700   60.3770 Any       1 RSD        -0.1051
      29  C12       34.8570   21.8210   59.7060 Any       1 RSD        -0.0151
      30  O11       34.4680   21.7330   58.2140 Any       1 RSD        -0.5851
      31  C13       34.0010   23.0550   60.1500 Any       1 RSD        -0.0151
      32  O12       34.8290   24.1120   60.0940 Any       1 RSD        -0.5851
      33  C14       32.8160   23.0800   59.1480 Any       1 RSD        -0.0151
      34  O13       32.1490   24.2820   59.1310 Any       1 RSD        -0.5851
      35  C15       33.5650   22.7470   57.8820 Any       1 RSD        -0.0151
      36  N6        32.7410   22.2660   56.7030 Any       1 RSD        -0.4551
      37  C16       32.1650   20.9590   56.6720 Any       1 RSD        -0.0401
      38  C17       31.4560   20.7000   55.5130 Any       1 RSD        -0.0401
      39  C18       30.8270   19.2130   55.5320 Any       1 RSD         0.6949
      40  O14       30.1600   18.8600   54.5330 Any       1 RSD        -0.4751
      41  N7        31.0630   18.4090   56.6560 Any       1 RSD        -0.3951
      42  C19       31.2710   21.5910   54.4140 Any       1 RSD        -0.0151
      43  C20       31.9100   22.8800   54.5830 Any       1 RSD        -0.0401
      44  C21       32.6390   23.2190   55.7150 Any       1 RSD        -0.0401
      45  H1        34.1012   16.7864   63.6703 Any       1 RSD         0.5049
      46  H2        30.1886   16.6952   63.9343 Any       1 RSD         0.1699
      47  H3        30.1849   15.4115   62.7238 Any       1 RSD         0.1699
      48  H4        28.1340   16.4073   63.2279 Any       1 RSD         0.1699
      49  H5        28.7406   15.4869   60.6955 Any       1 RSD         0.1699
      50  H6        26.2596   16.6365   61.5201 Any       1 RSD         0.5049
      51  H7        29.3111   17.5348   59.6092 Any       1 RSD         0.1699
      52  H8        26.6956   17.3951   59.1421 Any       1 RSD         0.5049
      53  H9        27.0097   18.7380   61.1203 Any       1 RSD         0.1699
      54  H10       30.7614   19.5767   60.6431 Any       1 RSD         0.1899
      55  H11       28.8731   25.3955   59.4015 Any       1 RSD         0.5049
      56  H12       30.2329   24.3743   59.5275 Any       1 RSD         0.5049
      57  H13       25.1707   22.9670   60.3208 Any       1 RSD         0.1899
      58  H14       31.9303   18.2820   58.2557 Any       1 RSD         0.5049
      59  H15       35.3304   20.0082   60.6281 Any       1 RSD         0.1699
      60  H16       33.9061   20.8135   61.2626 Any       1 RSD         0.1699
      61  H17       35.8977   21.9346   59.9273 Any       1 RSD         0.1699
      62  H18       33.5941   23.0400   61.1395 Any       1 RSD         0.1699
      63  H19       35.2241   24.1667   59.2098 Any       1 RSD         0.5049
      64  H20       32.0065   22.4142   59.3634 Any       1 RSD         0.1699
      65  H21       32.7764   24.9973   58.9420 Any       1 RSD         0.5049
      66  H22       34.0044   23.6636   57.5478 Any       1 RSD         0.1699
      67  H23       32.2678   20.2757   57.4385 Any       1 RSD         0.1899
      68  H24       30.6923   17.4978   56.6961 Any       1 RSD         0.5049
      69  H25       31.5994   18.7556   57.4052 Any       1 RSD         0.5049
      70  H26       31.6726   21.1295   53.5361 Any       1 RSD         0.1699
      71  H27       31.8193   23.5777   53.8280 Any       1 RSD         0.1899
      72  H28       33.0848   24.1448   55.8114 Any       1 RSD         0.1899
@<TRIPOS>BOND
       1        1       23 1
       2        1        3 1
       3        2        1 2
       4        3       45 1
       5        4        1 1
       6        4        5 1
       7        5       46 1
       8        5       47 1
       9        6        5 1
      10        6       48 1
      11        7        6 1
      12        8        9 1
      13        8        6 1
      14        8       49 1
      15        9       50 1
      16       10        8 1
      17       10       12 1
      18       10       51 1
      19       11       10 1
      20       11       52 1
      21       12        7 1
      22       12       53 1
      23       13       12 1
      24       14       13 1
      25       14       54 1
      26       15       14 2
      27       16       15 1
      28       16       22 2
      29       17       19 2
      30       17       16 1
      31       18       17 1
      32       18       55 1
      33       18       56 1
      34       19       20 1
      35       20       21 2
      36       20       57 1
      37       22       21 1
      38       22       13 1
      39       24       26 2
      40       24       23 1
      41       25       24 1
      42       25       58 1
      43       27       24 1
      44       27       28 1
      45       28       59 1
      46       28       60 1
      47       29       31 1
      48       29       28 1
      49       29       61 1
      50       30       29 1
      51       31       62 1
      52       32       31 1
      53       32       63 1
      54       33       31 1
      55       33       64 1
      56       34       33 1
      57       34       65 1
      58       35       30 1
      59       35       33 1
      60       35       66 1
      61       36       35 1
      62       37       36 1
      63       37       67 1
      64       38       39 1
      65       38       37 2
      66       39       41 1
      67       40       39 2
      68       41       68 1
      69       41       69 1
      70       42       43 1
      71       42       38 1
      72       42       70 1
      73       43       44 2
      74       43       71 1
      75       44       36 1
      76       44       72 1
