@<TRIPOS>MOLECULE
1lc3.pdb OpenBabel03151520153D
    72     76      1
SMALL
USER_CHARGES


@<TRIPOS>ATOM
       1  P3        65.3340    7.8540   49.7540 Any       1 RSD         1.5749
       2  O15       66.7690    8.2290   49.5450 Any       1 RSD        -0.6851
       3  O16       65.2210    6.5240   50.5030 Any       1 RSD        -0.5851
       4  O17       64.6020    7.7480   48.4130 Any       1 RSD        -0.5851
       5  C22       65.1460    6.7420   47.4660 Any       1 RSD        -0.1051
       6  C23       64.9930    6.9360   46.0130 Any       1 RSD        -0.0151
       7  O18       66.0080    7.9030   45.5410 Any       1 RSD        -0.5851
       8  C24       65.2740    5.6480   45.1670 Any       1 RSD        -0.0151
       9  O19       64.4070    5.6150   43.9820 Any       1 RSD        -0.5851
      10  C25       66.7260    5.7220   44.8560 Any       1 RSD        -0.0151
      11  O20       67.2350    4.8580   43.9230 Any       1 RSD        -0.5851
      12  C26       66.8060    7.2780   44.5950 Any       1 RSD        -0.0151
      13  N8        68.1240    7.7990   44.8110 Any       1 RSD        -0.4551
      14  C27       68.6670    8.4700   45.8930 Any       1 RSD        -0.0401
      15  N9        69.9270    8.8100   45.7730 Any       1 RSD        -0.4551
      16  C28       70.3130    8.3550   44.5320 Any       1 RSD        -0.0401
      17  C29       71.6510    8.4320   43.8040 Any       1 RSD        -0.0401
      18  N10       72.7430    8.9820   44.2630 Any       1 RSD        -0.3951
      19  N11       71.6190    7.8240   42.5140 Any       1 RSD        -0.4551
      20  C30       70.5700    7.2340   41.9430 Any       1 RSD        -0.0401
      21  N12       69.3040    7.1460   42.6010 Any       1 RSD        -0.4551
      22  C31       69.2160    7.7290   43.9180 Any       1 RSD        -0.0401
      23  O21       64.6150    8.9100   50.6870 Any       1 RSD        -0.5851
      24  P4        65.1050    9.6020   52.0990 Any       1 RSD         1.5749
      25  O22       66.4250    9.1340   52.4000 Any       1 RSD        -0.6851
      26  O23       64.0620    9.2320   53.0840 Any       1 RSD        -0.5851
      27  O24       65.0090   11.2030   51.9440 Any       1 RSD        -0.5851
      28  C32       64.2350   11.8930   50.9250 Any       1 RSD        -0.1051
      29  C33       62.7520   11.9250   51.0980 Any       1 RSD        -0.0151
      30  O25       62.3860   11.1830   52.3720 Any       1 RSD        -0.5851
      31  C34       62.0120   13.3130   51.3510 Any       1 RSD        -0.0151
      32  O26       60.8270   13.1750   50.6790 Any       1 RSD        -0.5851
      33  C35       61.8490   13.4150   52.8860 Any       1 RSD        -0.0151
      34  O27       60.8380   14.2800   53.2720 Any       1 RSD        -0.5851
      35  C36       61.5730   11.9700   53.1990 Any       1 RSD        -0.0151
      36  N13       61.8040   11.5450   54.6280 Any       1 RSD        -0.4551
      37  C37       63.1000   11.6080   55.2160 Any       1 RSD        -0.0401
      38  C38       63.1330   11.1830   56.5270 Any       1 RSD        -0.0401
      39  C39       64.6410   11.2870   57.1160 Any       1 RSD         0.6949
      40  O28       64.8300   10.9340   58.3000 Any       1 RSD        -0.4751
      41  N14       65.6470   11.7680   56.2590 Any       1 RSD        -0.3951
      42  C40       62.0180   10.7100   57.2950 Any       1 RSD        -0.0151
      43  C41       60.7550   10.6990   56.5660 Any       1 RSD        -0.0401
      44  C42       60.6490   11.1140   55.2420 Any       1 RSD        -0.0401
      45  H29       65.6454    5.8233   49.9835 Any       1 RSD         0.5049
      46  H30       66.1962    6.6730   47.6590 Any       1 RSD         0.1699
      47  H31       64.5505    5.8747   47.6613 Any       1 RSD         0.1699
      48  H32       63.9788    7.2501   45.8805 Any       1 RSD         0.1699
      49  H33       65.0516    4.7349   45.6785 Any       1 RSD         0.1699
      50  H34       64.5479    6.4176   43.4559 Any       1 RSD         0.5049
      51  H35       67.3867    5.3592   45.6155 Any       1 RSD         0.1699
      52  H36       66.7763    4.9875   43.0782 Any       1 RSD         0.5049
      53  H37       66.5085    7.4513   43.5819 Any       1 RSD         0.1699
      54  H38       68.1163    8.6881   46.7381 Any       1 RSD         0.1899
      55  H39       73.5616    8.9821   43.7160 Any       1 RSD         0.5049
      56  H40       72.7476    9.3965   45.1560 Any       1 RSD         0.5049
      57  H41       70.6742    6.8292   40.9994 Any       1 RSD         0.1899
      58  H42       63.2066    9.5897   52.7989 Any       1 RSD         0.5049
      59  H43       64.5770   12.9063   50.8924 Any       1 RSD         0.1699
      60  H44       64.3956   11.3304   50.0292 Any       1 RSD         0.1699
      61  H45       62.4428   11.5365   50.1502 Any       1 RSD         0.1699
      62  H46       62.5076   14.2000   51.0156 Any       1 RSD         0.1699
      63  H47       60.3755   12.3714   50.9813 Any       1 RSD         0.5049
      64  H48       62.6847   13.8311   53.4089 Any       1 RSD         0.1699
      65  H49       60.0043   14.0085   52.8572 Any       1 RSD         0.5049
      66  H50       60.5252   11.8357   53.0287 Any       1 RSD         0.1699
      67  H51       63.9350   11.9403   54.7087 Any       1 RSD         0.1899
      68  H52       65.4244   12.0283   55.3360 Any       1 RSD         0.5049
      69  H53       66.5738   11.8444   56.5821 Any       1 RSD         0.5049
      70  H54       61.9067   11.3428   58.1506 Any       1 RSD         0.1699
      71  H55       59.9057   10.3702   57.0515 Any       1 RSD         0.1899
      72  H56       59.7459   11.0995   54.7428 Any       1 RSD         0.1899
@<TRIPOS>BOND
       1        1        4 1
       2        1        3 1
       3        1       23 1
       4        2        1 2
       5        3       45 1
       6        5        4 1
       7        5       46 1
       8        5       47 1
       9        6        5 1
      10        6       48 1
      11        7        6 1
      12        8        6 1
      13        8       49 1
      14        9        8 1
      15        9       50 1
      16       10        8 1
      17       10       51 1
      18       11       10 1
      19       11       52 1
      20       12       13 1
      21       12       10 1
      22       12        7 1
      23       12       53 1
      24       13       14 1
      25       14       54 1
      26       15       14 2
      27       16       15 1
      28       17       18 1
      29       17       16 2
      30       18       55 1
      31       18       56 1
      32       19       17 1
      33       20       19 2
      34       20       21 1
      35       20       57 1
      36       21       22 2
      37       22       16 1
      38       22       13 1
      39       24       23 1
      40       24       25 2
      41       24       26 1
      42       26       58 1
      43       27       24 1
      44       28       29 1
      45       28       27 1
      46       28       59 1
      47       28       60 1
      48       29       31 1
      49       29       30 1
      50       29       61 1
      51       30       35 1
      52       31       33 1
      53       31       62 1
      54       32       31 1
      55       32       63 1
      56       33       35 1
      57       33       34 1
      58       33       64 1
      59       34       65 1
      60       35       36 1
      61       35       66 1
      62       36       37 1
      63       36       44 1
      64       37       38 2
      65       37       67 1
      66       38       39 1
      67       38       42 1
      68       39       40 2
      69       41       39 1
      70       41       68 1
      71       41       69 1
      72       42       70 1
      73       43       42 1
      74       43       71 1
      75       44       43 2
      76       44       72 1
